<?xml version="1.0" encoding="UTF-8"?>

<!-- generated on 2026-05-16 10:27:20.761354 by Eclipse SUMO randomTrips.py v0.0.0
<configuration>
    <net-file value="/Users/keshav/Downloads/new_map.net.xml"/>
    <route-file value="/Users/keshav/Downloads/ambulance_random_new.rou.xml"/>
    <prefix value="new_ambulance_"/>
    <trip-attributes value="type=&quot;ambulance&quot; departLane=&quot;best&quot; departPos=&quot;free&quot; departSpeed=&quot;max&quot;"/>
    <validate value="False"/>
    <begin value="30.0"/>
    <end value="7200.0"/>
    <period value="60.0"/>
</configuration>
-->

<!-- generated on 2026-05-16T10:27:20.741150-08:00 by Eclipse SUMO duarouter 1.26.0
<duarouterConfiguration xmlns:xsi="http://www.w3.org/2001/XMLSchema-instance" xsi:noNamespaceSchemaLocation="http://sumo.dlr.de/xsd/duarouterConfiguration.xsd">

    <input>
        <net-file value="/Users/keshav/Downloads/new_map.net.xml"/>
        <route-files value="trips.trips.xml"/>
    </input>

    <output>
        <output-file value="/Users/keshav/Downloads/ambulance_random_new.rou.xml"/>
        <alternatives-output value="NUL"/>
    </output>

    <time>
        <begin value="30.0"/>
        <end value="7200.0"/>
    </time>

    <report>
        <no-warnings value="true"/>
        <ignore-errors value="true"/>
        <no-step-log value="true"/>
    </report>

</duarouterConfiguration>
-->

<routes xmlns:xsi="http://www.w3.org/2001/XMLSchema-instance" xsi:noNamespaceSchemaLocation="http://sumo.dlr.de/xsd/routes_file.xsd">
    <vType id="ambulance"
           vClass="emergency"
           accel="3.5"
           decel="7.0"
           emergencyDecel="9.0"
           maxSpeed="25"
           sigma="0.2"
           color="1,0,0"
           guiShape="emergency"
           lcCooperative="1.0"
           lcStrategic="1.0"
           lcSpeedGain="1.0"/>

    <vehicle id="new_ambulance_2" type="ambulance" depart="150.00" departLane="best" departPos="free" departSpeed="max">
        <route edges="6336233#2 6336233#3 6327902#0 6327902#1 6327902#2 1417060922#1 417109152 417109132 39158023#0 732311661#1 732311661#2 417109218 1365136392 417099885#0 417099885#1 417099885#2 417099885#3 417099885#4 417099885#5 417099885#7 417099885#8 417099885#9 417099885#10 417099885#11 417099871 37436237#0 37436237#1 37436237#2 1384102708 417712050 417099875 417099863 417099854 125343972#1 1125518057 1477882846 319199244 417099764 356707830#1 356707830#2 356707830#3 6320718"/>
        <param key="has.bluelight.device" value="true"/>
    </vehicle>
    <vehicle id="new_ambulance_3" type="ambulance" depart="210.00" departLane="best" departPos="free" departSpeed="max">
        <route edges="6388025#1 6388025#2 6352239#1 6396921#2 6336233#3 6327902#0 6327902#1 6327902#2 1417060922#1 417109152 417109132 39158023#0 732311661#1 732311661#2 417109218 1365136392 417099885#0 417099885#1 417099885#2 417099885#3 417099885#4 417099885#5 417099885#7 417099885#8 417099885#9 417099885#10 417099885#11 417099871 37436237#0 37436237#1 37436237#2 1384102708 417712050 417099875 417099863 417099854 125343972#1 1125518057 1477882846 319199244 417099764 356707830#1 356707830#2 356707830#3 356707830#4 -356707830#4"/>
        <param key="has.bluelight.device" value="true"/>
    </vehicle>
    <vehicle id="new_ambulance_4" type="ambulance" depart="270.00" departLane="best" departPos="free" departSpeed="max">
        <route edges="-743199093#1 743199098#2 743199094#4 743199094#5 417109152 417109132 39158023#0 732311662#1 732311662#2 732311662#3 417109194 6330783#1 6330783#3 6330783#4 6330783#5 6330783#6 6330783#8 6330783#9 6330783#10 -6397696 -1385401545#0"/>
        <param key="has.bluelight.device" value="true"/>
    </vehicle>
    <vehicle id="new_ambulance_6" type="ambulance" depart="390.00" departLane="best" departPos="free" departSpeed="max">
        <route edges="-1365136392 154200665 417109211#0 732311660 417292856 417292872 518175685 417292836#0 -6327902#2 -6327902#1 -6327902#0 6336233#5 6335430#0 6335430#1 6335430#2 -6339261#2"/>
        <param key="has.bluelight.device" value="true"/>
    </vehicle>
    <vehicle id="new_ambulance_7" type="ambulance" depart="450.00" departLane="best" departPos="free" departSpeed="max">
        <route edges="417292843#0 1417060922#1 417109152 417109132 39158023#0 732311661#1 732311661#2 417109218 1365136392 417099885#0 417099885#1 417099885#2 417099885#3 417099885#4 417099885#5 417099885#7 417099885#8 417099885#9 417099885#10 417099885#11 417099871 37436237#0 37436237#1 37436237#2 1384102708 417712050 417099875 417099863 417099854 125343972#1 1125518057 1477882846 319199244 417099764 319204819#1"/>
        <param key="has.bluelight.device" value="true"/>
    </vehicle>
    <vehicle id="new_ambulance_9" type="ambulance" depart="570.00" departLane="best" departPos="free" departSpeed="max">
        <route edges="6352824#7 6352824#8 6352824#9 6352824#10 417292872 518175685 417292836#0 1417060922#1 417109152 417109132 39158023#0 732311662#1 732311662#2 732311662#3 417109194 417109193 417109170 417109184 417109203 119466373 1107630021 417109206 747497971 -1110911847"/>
        <param key="has.bluelight.device" value="true"/>
    </vehicle>
    <vehicle id="new_ambulance_10" type="ambulance" depart="630.00" departLane="best" departPos="free" departSpeed="max">
        <route edges="6352824#10 417292872 518175685 417292836#0 -6327902#2 -6327902#1 -6327902#0 6336233#5 6336235#1 6336235#2 6330574#0 6330574#1"/>
        <param key="has.bluelight.device" value="true"/>
    </vehicle>
    <vehicle id="new_ambulance_13" type="ambulance" depart="810.00" departLane="best" departPos="free" departSpeed="max">
        <route edges="-359194846#1 -359194818#1 -359194818#0 417095586#1 417095586#3 417095586#4 417095586#5 -417095586#5 -417095586#4"/>
        <param key="has.bluelight.device" value="true"/>
    </vehicle>
    <vehicle id="new_ambulance_14" type="ambulance" depart="870.00" departLane="best" departPos="free" departSpeed="max">
        <route edges="6375727 6346823#2 6346825 6350903#1 1030355060#1 1030355059 39158024#0 39158024#1 39158024#2 39158024#3 417292843#0 1417060922#1 417109152 417109132 39158023#0 732311661#1 732311661#2 417109218 1365136392 417099885#0 417099885#1 417099885#2 417099885#3 417099885#4 417099885#5 417099885#7 417099885#8 417099885#9 417099885#10 417099885#11 417099871 37436237#0 37436237#1 37436237#2 1384102708 417712050 417099875 417099863 417099854 125343972#1 6347235 1477882845 242565446 1091171443 417099771#1 417104919#1 417104919#2 417104919#3 417104919#4 417104919#5 417104919#6 417104861#0 417104861#1 417104907#0 417104907#1 417104907#2 417104888#0 417104833#0 417104833#1 1091171441#1 417104757"/>
        <param key="has.bluelight.device" value="true"/>
    </vehicle>
    <vehicle id="new_ambulance_17" type="ambulance" depart="1050.00" departLane="best" departPos="free" departSpeed="max">
        <route edges="-6398405 221422255#4 6363343#1 -1125518055#1 -1125518055#0 417099863 417099854 125343972#1 1125518057 1477882846 319199244 417099764 356707830#1 356707830#2"/>
        <param key="has.bluelight.device" value="true"/>
    </vehicle>
    <vehicle id="new_ambulance_21" type="ambulance" depart="1290.00" departLane="best" departPos="free" departSpeed="max">
        <route edges="-6344437#4 -6344437#3 -6344437#2 -6327105#6 -6327105#5 -6369876#4"/>
        <param key="has.bluelight.device" value="true"/>
    </vehicle>
    <vehicle id="new_ambulance_22" type="ambulance" depart="1350.00" departLane="best" departPos="free" departSpeed="max">
        <route edges="-30915802#2 -30915802#1 -30915802#0 -417110699#1 417110699#1 30915802#0 30915802#1 30915802#2 30915802#3 1341691756#0 1341691756#1 -6393295#1 -6393295#0 -1385457144#0 -1385457143#5 -1385457143#4 -1385457143#3 -1385457143#1 -1385457143#0 -6335137#13 -6335137#12 -6335137#11 -6335137#10 -6335137#9 -6335137#8 6364012#0 -844708971#0 6338594 28948302#1 -6346304"/>
        <param key="has.bluelight.device" value="true"/>
    </vehicle>
    <vehicle id="new_ambulance_25" type="ambulance" depart="1530.00" departLane="best" departPos="free" departSpeed="max">
        <route edges="-6395100 -6378025#1 -6392511#1 1125168400#2 1125168400#3 1125168400#4 1125168400#5 1125168400#6 6388184#0 6400493#0 6400493#1 6341284#0 6341284#1 -6341284#1 -6341284#0"/>
        <param key="has.bluelight.device" value="true"/>
    </vehicle>
    <vehicle id="new_ambulance_26" type="ambulance" depart="1590.00" departLane="best" departPos="free" departSpeed="max">
        <route edges="-6354457#1 -6354455#3 -6354455#2 417109156 417109161#0 732311660 417292856 417292872 518175685 417292836#0 39158025#1 39158025#2 39158025#3 417292858#0 243743797#1 417292827#0 6363296#3 6402363#2"/>
        <param key="has.bluelight.device" value="true"/>
    </vehicle>
    <vehicle id="new_ambulance_27" type="ambulance" depart="1650.00" departLane="best" departPos="free" departSpeed="max">
        <route edges="417110704#1 1417023209#0 1417023209#1 1417023209#2 1417023209#4 1417023207#0 1417023207#2 1417023208 417110670#0 -417110670#0 -1417023208 -1417023207#2 -1417023207#0 -1417023209#4 -1417023209#2 -1417023209#1 -1417023209#0 -417110704#1 -417110704#0 -1341691756#1 -1341691756#0 -30915802#3 -30915802#2 -30915802#1 -30915802#0 -417110699#1 -417109209#1 -417109209#0 -119466143 -1107630020 -119466342#3 -119466342#2 -119466342#1 -119466342#0 -417109221#7 -417109221#6 -417109221#5 -417109221#4 -417109221#3 -417109221#2 -417109221#1 -417109221#0 -417109192 -417109200 -417109196 -417109174 -417109206 -1107630021 -1389397840 -417109203 -417109184 -417109170 -417109193 417109215#0 417109215#1 417109177#0 732311661#1 732311661#2 417109218 1365136392 417099885#0 417099885#1 417099885#2 417099885#3 417099885#4 417099885#5 417099885#7 417099885#8 417099885#9 417099885#10 417099885#11 417099871 37436237#0 37436237#1 37436237#2 1384102708 417712050 417099875 417099863 417099854 125343972#1 6347235 1477882845 242565446 1091171443 417099771#1 417104919#1 417104919#2 417104919#3 417104919#4 417104919#5 417104919#6 417104861#0 417104861#1 417104907#0 417104907#1 417104907#2 417104888#0 417104875#1"/>
        <param key="has.bluelight.device" value="true"/>
    </vehicle>
    <vehicle id="new_ambulance_29" type="ambulance" depart="1770.00" departLane="best" departPos="free" departSpeed="max">
        <route edges="-6331370#4 6331370#4 6331370#5 725202076#5 417101787#1 417101787#2 417101787#3 417101772#0 417101884#0 417101884#1 417101812 417101889 417109111 417109156 417109161#0 732311660 417292856 417292872 518175685 417292836#0 39158025#1 39158025#2 39158025#3 417292858#0 417292915#1 417292915#2 -6335137#1 -6335137#0 6388594#2 -6399891#1"/>
        <param key="has.bluelight.device" value="true"/>
    </vehicle>
    <vehicle id="new_ambulance_30" type="ambulance" depart="1830.00" departLane="best" departPos="free" departSpeed="max">
        <route edges="82362328#5 -82362328#5 -82362328#4 -82362328#3 -82362328#2 -82362328#1 -82362328#0 1385457144#0 1385457144#1 6393295#1 417110704#0 417110704#1 1417023209#0 1417023209#1 1417023209#2 1417023209#4 1417023207#0 1417023207#2 1417023208 417110670#0"/>
        <param key="has.bluelight.device" value="true"/>
    </vehicle>
    <vehicle id="new_ambulance_31" type="ambulance" depart="1890.00" departLane="best" departPos="free" departSpeed="max">
        <route edges="319667116#6 319667116#8 319667116#9 319667116#10 319667116#12 319667116#14 1125517937#0 1125517937#1 6327105#1 6327105#2"/>
        <param key="has.bluelight.device" value="true"/>
    </vehicle>
    <vehicle id="new_ambulance_32" type="ambulance" depart="1950.00" departLane="best" departPos="free" departSpeed="max">
        <route edges="6371081#0 -6388199#2 6376242#1 -6341506#3 -6341506#2 -6336214#1 -6336214#0 417099885#7 417099885#8 417099885#9 417099885#10 417099885#11 417099871 37436237#0 37436237#1 37436237#2 1384102708 417712050 417099875 417099863 417099854 125343972#1 6347235 1477882845 242565446 1091171443 417099771#1 417104919#1 417104919#2 417104919#3 417104919#4 417104919#5 417104919#6 417104861#0 417104861#1 417104907#0 417104907#1 417104907#2 417104888#0 6346214#2 6346214#3"/>
        <param key="has.bluelight.device" value="true"/>
    </vehicle>
    <vehicle id="new_ambulance_34" type="ambulance" depart="2070.00" departLane="best" departPos="free" departSpeed="max">
        <route edges="-6377773#3 154200665 417109211#0 732311662#1 732311662#2 732311662#3 417109194 417109193 417109170 417109184 1385403723#0 1385403723#1 6361345#0 -6361345#0"/>
        <param key="has.bluelight.device" value="true"/>
    </vehicle>
    <vehicle id="new_ambulance_35" type="ambulance" depart="2130.00" departLane="best" departPos="free" departSpeed="max">
        <route edges="-6340539#8 -6340539#7 -6340539#6 -6340539#5 -6340539#4 -6340539#3 6321428#1 417104907#0 417104907#1 417104907#2 417104888#0 6346214#2 6346214#3 6346214#4 6346214#5 6346214#6 6346214#7 6346214#8 6346214#9 725202075#0 725202075#2 725202075#3 725202075#4 725202076#0 6406203#1 6406203#2 6406203#3"/>
        <param key="has.bluelight.device" value="true"/>
    </vehicle>
    <vehicle id="new_ambulance_36" type="ambulance" depart="2190.00" departLane="best" departPos="free" departSpeed="max">
        <route edges="6380579#4 6380579#5 -6380579#5 -6380579#4 -6380579#3 -6380579#2 -6380579#1 -6380579#0 -417109200 -417109196 -417109174 -417109206 -1107630021 -1389397840 -417109203 -417109184 -417109170 -417109193 417109215#0 417109215#1 417109177#0 417101890#1 417101890#2 417109117 417109147#0 417109147#1 417109127 -6377773#13 -6377773#12 -6377773#11 -6377773#10 -6377773#9 -6377773#8 -6377773#7 -6377773#6"/>
        <param key="has.bluelight.device" value="true"/>
    </vehicle>
    <vehicle id="new_ambulance_37" type="ambulance" depart="2250.00" departLane="best" departPos="free" departSpeed="max">
        <route edges="417292893#1 6324437#1 6407284 -6364012#0 6335137#8 6335137#9 6335137#10 6335137#11 6335137#12 6335137#13 1385457143#0 1385457143#1 1385457143#3 1385457143#4 1385457143#5 1385457144#0 1385457144#1 6393295#1 6393295#2 6393295#4 6393295#5 6393295#6 6393295#7 6407199#10 6407199#11 -6407199#11"/>
        <param key="has.bluelight.device" value="true"/>
    </vehicle>
    <vehicle id="new_ambulance_38" type="ambulance" depart="2310.00" departLane="best" departPos="free" departSpeed="max">
        <route edges="6394156#1 6369876#0 -6335775#1 319667116#3 319667116#5 319667116#6 319667116#8 319667116#9 319667116#10 319667116#12 319667116#14 1125517937#0 1125517937#1 1125517937#3 1125517937#4 1125517937#5 1125517937#6 1125517937#7"/>
        <param key="has.bluelight.device" value="true"/>
    </vehicle>
    <vehicle id="new_ambulance_41" type="ambulance" depart="2490.00" departLane="best" departPos="free" departSpeed="max">
        <route edges="417099721 417099651 723606274 6366626 6366623#1 6326974 -6390192#4 -6390192#3 -6390192#2 -6390192#1 6390192#1"/>
        <param key="has.bluelight.device" value="true"/>
    </vehicle>
    <vehicle id="new_ambulance_42" type="ambulance" depart="2550.00" departLane="best" departPos="free" departSpeed="max">
        <route edges="-6406734 -6321550#2 -6321550#1 -6321550#0 743199094#0 743199094#1 743199094#2 743199094#3 743199094#4 743199094#5 417109152 417109132 39158023#0 732311660 417292856 -6352824#10 -6352824#9 -6352824#8 -6343593#0"/>
        <param key="has.bluelight.device" value="true"/>
    </vehicle>
    <vehicle id="new_ambulance_43" type="ambulance" depart="2610.00" departLane="best" departPos="free" departSpeed="max">
        <route edges="949106041 417099595 1125517656 1125517657#1 417099721 417099651 -235414566 -1125517713 319667116#14 1125517937#0 1125517937#1 6327105#1 6327105#2 6327105#3 6327105#4 6327105#5 6327105#6 6344437#2 6344437#3 6344437#4 6344437#5 6344437#6 156504067#8 156504067#9 156504067#10"/>
        <param key="has.bluelight.device" value="true"/>
    </vehicle>
    <vehicle id="new_ambulance_45" type="ambulance" depart="2730.00" departLane="best" departPos="free" departSpeed="max">
        <route edges="-417099885#8 -417099885#7 -417099885#5 -417099885#4 -417099885#3 -417099885#2 -417099885#1 -417099885#0 -1365136392 154200665 417109211#0 732311662#1 732311662#2 732311662#3 417109194 417109193 417109170 417109184 417109203 119466373 1107630021 417109206 417109174 417109196 417109200"/>
        <param key="has.bluelight.device" value="true"/>
    </vehicle>
    <vehicle id="new_ambulance_47" type="ambulance" depart="2850.00" departLane="best" departPos="free" departSpeed="max">
        <route edges="-235414566 -1125517713 -319667116#12 -319667116#10 -319667116#9 -319667116#8 -319667116#6 -319667116#5 6386053#1 -6369876#2 6352738#0 -6332221#3 -6332221#2 -6332221#1 -6332221#0 -6344516#2 -6344516#1 -6344516#0 6388184#0 6400493#0 6400493#1 6400493#2 6400493#5 6400493#6 -6356400 -6400493#5"/>
        <param key="has.bluelight.device" value="true"/>
    </vehicle>
    <vehicle id="new_ambulance_49" type="ambulance" depart="2970.00" departLane="best" departPos="free" departSpeed="max">
        <route edges="725202076#4 725202076#5 417101787#1 417101787#2 417101787#3 417101772#0 417101884#0 417101884#1 417101812 -6377773#13 -6377773#12 -6377773#11 -6377773#10 -6377773#9 -6377773#8 -6377773#7 -6377773#6 -6377773#5 -6377773#4 -6377773#3 6377773#3 6377773#4 6377773#5 6377773#6 6377773#7 6377773#8"/>
        <param key="has.bluelight.device" value="true"/>
    </vehicle>
    <vehicle id="new_ambulance_51" type="ambulance" depart="3090.00" departLane="best" departPos="free" departSpeed="max">
        <route edges="6321550#3 -6373683#0 -6369540#1 -6369540#0 -6327902#9 -6327902#8 39158025#1 39158025#2 39158025#3 417292858#0 417292915#1 417292915#2 417292893#1 6324437#1 6338594 28948302#1 28948302#2 28948302#3"/>
        <param key="has.bluelight.device" value="true"/>
    </vehicle>
    <vehicle id="new_ambulance_52" type="ambulance" depart="3150.00" departLane="best" departPos="free" departSpeed="max">
        <route edges="-6354457#1 -6354455#3 -6354455#2 417109156 417109161#0 732311662#1 732311662#2 732311662#3 417109194 417109193 417109170 417109184 417109203 119466373 1107630021 417109206 417109174 417109196 417109200 417109192 417109221#0 417109221#1 417109221#2 417109221#3 417109221#4 417109221#5 417109221#6 417109221#7 119466342#0 119466342#1 119466342#2 119466342#3 1107630020 119466143 417109209#0 417109209#1 417110699#1 30915802#0 30915802#1 30915802#2 30915802#3 1341691756#0 1341691756#1 417110704#0 417110704#1 1417023209#0 1417023209#1 1417023209#2 1417023209#4 1417023207#0 1417023207#2 1417023208 417110670#0 417110670#2"/>
        <param key="has.bluelight.device" value="true"/>
    </vehicle>
    <vehicle id="new_ambulance_53" type="ambulance" depart="3210.00" departLane="best" departPos="free" departSpeed="max">
        <route edges="-417109174 747497971 -747497972#1 -747497972#0 -6380579#0 417109192 417109221#0 417109221#1 417109221#2 417109221#3 417109221#4 417109221#5 417109221#6 417109221#7 119466342#0 119466342#1 119466342#2 119466342#3 1107630020 119466143 417109209#0 417109209#1 417110699#1 30915802#0 30915802#1 30915802#2 30915802#3 1341691756#0 1341691756#1 -6393295#1 -6393295#0 -1385457144#0 -1385457143#5 -1385457143#4 -1385457143#3 -1385457143#1 -1385457143#0 -6335137#13 -6335137#12 6383121#0 -844708971#4"/>
        <param key="has.bluelight.device" value="true"/>
    </vehicle>
    <vehicle id="new_ambulance_54" type="ambulance" depart="3270.00" departLane="best" departPos="free" departSpeed="max">
        <route edges="1107630019#2 1107630019#3 1107630019#4 -6407199#12 -6407199#11 -6407199#10 -6407199#9 -6407199#7 -6407199#6 -6407199#5 -6407199#4 -6407199#3 -6407199#2 -6407199#1 -6407199#0 6407199#0 6407199#1 6407199#2 6407199#3 6407199#4 6407199#5 6407199#6 6407199#7"/>
        <param key="has.bluelight.device" value="true"/>
    </vehicle>
    <vehicle id="new_ambulance_56" type="ambulance" depart="3390.00" departLane="best" departPos="free" departSpeed="max">
        <route edges="1417023209#4 1417023207#0 1417023207#2 1417023208 417110670#0 417110670#2 417110670#3 417110670#4 417110670#5 417110675 417109239#0 417109239#1 417109252 417292908#0 417292908#1 417292908#2 417292908#3 58533716#0 58533716#1 417292893#1 417292893#2 475725674 417292889#0 -6350903#1 6337807#0 6337807#1 -6336411#2 -82485574 -6330199 6340646#1 -6335430#3 -6335430#2 -6335430#1 -6335430#0"/>
        <param key="has.bluelight.device" value="true"/>
    </vehicle>
    <vehicle id="new_ambulance_57" type="ambulance" depart="3450.00" departLane="best" departPos="free" departSpeed="max">
        <route edges="6393582#1 6393582#2 -6377773#10 -6377773#9 -6377773#8 -6377773#7 -6377773#6 -6377773#5 -6377773#4 -6377773#3 154200665 417109211#0 732311662#1 732311662#2 732311662#3 417109194 417109193 417109170 417109184 417109203 119466373 1107630021 417109206 417109174 417109196 417109200 6380579#0"/>
        <param key="has.bluelight.device" value="true"/>
    </vehicle>
    <vehicle id="new_ambulance_59" type="ambulance" depart="3570.00" departLane="best" departPos="free" departSpeed="max">
        <route edges="417104833#0 417104833#1 1091171441#1 417104757 122220077#1 122220077#2 122220077#3 122220077#4 417099805#0 417099805#1 417099805#2 417099785#1 417099825#0 160251184#1 417099849 184856734 417099872 160251185 -417712046 -417099863 -417712041 -417712050 -1384102708 -37436237#2 -37436237#1 -37436237#0 -417099871 -417099885#11 -417099885#10 -417099885#9 -417099885#8 -417099885#7 -417099885#5 -417099885#4 -417099885#3 -417099885#2 -417099885#1 -417099885#0 -1365136392 154200665 417109211#0 732311662#1 732311662#2 732311662#3 417109194 6330783#1 6330783#3 6330783#4 6330783#5 6330783#6 6330783#8 6330783#9 6330783#10 -6330783#10"/>
        <param key="has.bluelight.device" value="true"/>
    </vehicle>
    <vehicle id="new_ambulance_61" type="ambulance" depart="3690.00" departLane="best" departPos="free" departSpeed="max">
        <route edges="6346214#5 6346214#6 6346214#7 -6346214#7 -6346214#6 -6346214#5 -6346214#4 -6346214#3 -6346214#2 417104833#0 417104833#1 1091171441#1 417104757 122220077#1 122220077#2 122220077#3 122220077#4 417099805#0 417099805#1 417099805#2 417099785#1 417099825#0 160251184#1 417099849 1125518058 1477882845 242565446"/>
        <param key="has.bluelight.device" value="true"/>
    </vehicle>
    <vehicle id="new_ambulance_62" type="ambulance" depart="3750.00" departLane="best" departPos="free" departSpeed="max">
        <route edges="-1006611637 6402363#1 6402363#2 6402363#3 6388594#1 6335137#0 6335137#1 6335137#7 6335137#8 6335137#9 6335137#10 6335137#11 6335137#12 6335137#13 1385457143#0 1385457143#1 1385457143#3 1385457143#4 1385457143#5 1385457144#0 1385457144#1 6393295#1 -1341691756#1 -1341691756#0 -30915802#3 -30915802#2 -30915802#1 -30915802#0 -417110699#1 -417109209#1 -417109209#0 -119466143 -1107630020 -119466342#3 -119466342#2 -119466342#1 -119466342#0 -417109221#7 -417109221#6 466467378 -6380579#5 -6380579#4 -6380579#3 -6380579#2"/>
        <param key="has.bluelight.device" value="true"/>
    </vehicle>
    <vehicle id="new_ambulance_63" type="ambulance" depart="3810.00" departLane="best" departPos="free" departSpeed="max">
        <route edges="-119466143 -1107630020 -119466342#3 -119466342#2 -119466342#1 -119466342#0 -417109221#7 -417109221#6 -417109221#5 -417109221#4 -417109221#3 -417109221#2 -417109221#1 -417109221#0 -417109192 -417109200 -417109196 -417109174 -417109206 -1107630021 -1389397840 -417109203 -417109184 -417109170 -417109193 417109215#0 417109215#1 417109177#0 732311661#1 732311661#2 417109218 1365136392 417099885#0 417099885#1 417099885#2 417099885#3 417099885#4 417099885#5 417099885#7 417099885#8 417099885#9 417099885#10 417099885#11 417099871 37436237#0 37436237#1 37436237#2 1384102708 417712050 417099875 417099863 417099854 125343972#1 6347235 1477882845 242565446 1091171443 417099771#1 417104919#1 417104919#2 417104919#3 417104919#4 417104919#5 417104919#6 417104861#0 417104861#1 -6387869#0 6399832"/>
        <param key="has.bluelight.device" value="true"/>
    </vehicle>
    <vehicle id="new_ambulance_68" type="ambulance" depart="4110.00" departLane="best" departPos="free" departSpeed="max">
        <route edges="-242562183 417095582 242562187#0 242562187#1 393908330 417954120 242562183 -6340935#3 -6340935#2 417954118 417954116 83588154 417099665 -235414566 -1125517713 319667116#14 1125517937#0 1125517937#1 1125517937#3 1125517937#4 1125517937#5 1125517937#6 1125517937#7 1125518021#0 1125518021#1 242565997#0 242565997#1 242565997#2 6342607#0 6342607#1"/>
        <param key="has.bluelight.device" value="true"/>
    </vehicle>
    <vehicle id="new_ambulance_69" type="ambulance" depart="4170.00" departLane="best" departPos="free" departSpeed="max">
        <route edges="6342879#2 6342879#3 -30915802#2 -30915802#1 -30915802#0 -417110699#1 -417109209#1 -417109209#0 -119466143 -1107630020 -119466342#3 -119466342#2 -119466342#1 -119466342#0 -417109221#7 -417109221#6 -417109221#5 -417109221#4 -417109221#3 -417109221#2 -417109221#1 -417109221#0 -417109192 -417109200 -417109196 -417109174 -417109206 -1107630021 -1389397840 -417109203 -417109184 -417109170 -417109193 417109215#0 417109215#1 417109177#0 732311661#1 732311661#2 417109218 1365136392 417099885#0 417099885#1 417099885#2 417099885#3 417099885#4 417099885#5 417099885#7 417099885#8 417099885#9 417099885#10 417099885#11 417099871 37436237#0 37436237#1 37436237#2 1384102708 417712050 417099875 417099863 417099854 125343972#1 6347235 1477882845 242565446 1091171443 417099771#1 417104919#1 417104919#2 417104919#3 417104919#4 417104919#5 417104919#6 417104861#0 417104861#1 417104907#0 -524701754#1"/>
        <param key="has.bluelight.device" value="true"/>
    </vehicle>
    <vehicle id="new_ambulance_71" type="ambulance" depart="4290.00" departLane="best" departPos="free" departSpeed="max">
        <route edges="-6352824#9 6352824#9 6352824#10 417292872 518175685 417292836#0 1417060922#1 417109152 417109132 39158023#0 732311662#1 732311662#2 732311662#3 417109194 417109193 417109170 417109184 417109203 119466373 1107630021 417109206 417109174 417109196 417109200 6380579#0 6380579#1 6380579#2 6380579#3"/>
        <param key="has.bluelight.device" value="true"/>
    </vehicle>
    <vehicle id="new_ambulance_72" type="ambulance" depart="4350.00" departLane="best" departPos="free" departSpeed="max">
        <route edges="-743199093#5 -743199093#2 -743199093#1 743199098#2 743199094#4 743199094#5 417109152 417109132 39158023#0 732311661#1 732311661#2 417109218 -6377773#1 -6377773#0 6371081#0 -6388199#2 6376242#1 -6341506#3"/>
        <param key="has.bluelight.device" value="true"/>
    </vehicle>
    <vehicle id="new_ambulance_73" type="ambulance" depart="4410.00" departLane="best" departPos="free" departSpeed="max">
        <route edges="242565997#2 6342607#0 6342607#1 -1231758411 -1231758412#1 -1231758412#0 -6369876#5 -6369876#4 -6369876#3 -6369876#2 6352738#0 -6332221#3 6335775#3"/>
        <param key="has.bluelight.device" value="true"/>
    </vehicle>
    <vehicle id="new_ambulance_74" type="ambulance" depart="4470.00" departLane="best" departPos="free" departSpeed="max">
        <route edges="-6337954#0 6337954#0 417101890#2 417109117 417109147#0 417109147#1 417109127 -6377773#13 -6377773#12"/>
        <param key="has.bluelight.device" value="true"/>
    </vehicle>
    <vehicle id="new_ambulance_76" type="ambulance" depart="4590.00" departLane="best" departPos="free" departSpeed="max">
        <route edges="-82362328#5 -82362328#4 -82362328#3 -691374189 839114764 -417110670#0 -1417023208 -1417023207#2 -1417023207#0 -1417023209#4 -1417023209#2 -1417023209#1 -1417023209#0 -417110704#1 -417110704#0 -1341691756#1 -1341691756#0 -30915802#3 -30915802#2 -30915802#1 -30915802#0 -417110699#1 -417109209#1 -417109209#0 -119466143 -1107630020 -119466342#3 -119466342#2 -119466342#1 -119466342#0 -417109221#7 -417109221#6 -417109221#5 -417109221#4 -417109221#3 -417109221#2 -417109221#1 -417109221#0 -417109192 -417109200 -417109196 -417109174 -417109206 -1107630021 -1389397840 -417109203 -417109184 -417109170 -417109193 417109215#0 417109215#1 417109177#0 732311661#1 732311661#2 417109218 1365136392 417099885#0 417099885#1 417099885#2 417099885#3 417099885#4 417099885#5 417099885#7 417099885#8 417099885#9 417099885#10 417099885#11 417099871 37436237#0 37436237#1 37436237#2 1384102708 417712050 417099875 1125518055#0 1125518055#1 -6363343#1 -221422255#4 -221422255#3 -221422255#2 -6342850 221422255#1"/>
        <param key="has.bluelight.device" value="true"/>
    </vehicle>
    <vehicle id="new_ambulance_78" type="ambulance" depart="4710.00" departLane="best" departPos="free" departSpeed="max">
        <route edges="-6386113 221422255#3 221422255#4 6363343#1 -1125518055#1 -1125518055#0 -417712041 -417712050 -1384102708 -37436237#2 -37436237#1 -37436237#0 -417099871 -417099885#11 -417099885#10 -417099885#9 -417099885#8 -417099885#7 -417099885#5 -417099885#4 -417099885#3 -417099885#2 -417099885#1 -417099885#0 -1365136392 1365136392 417099885#0"/>
        <param key="has.bluelight.device" value="true"/>
    </vehicle>
    <vehicle id="new_ambulance_79" type="ambulance" depart="4770.00" departLane="best" departPos="free" departSpeed="max">
        <route edges="-6344437#8 -6344437#7 -6344437#6 -6344437#5 -6344437#4 -6344437#3 -6344437#2 -6344437#1 -6344437#0"/>
        <param key="has.bluelight.device" value="true"/>
    </vehicle>
    <vehicle id="new_ambulance_82" type="ambulance" depart="4950.00" departLane="best" departPos="free" departSpeed="max">
        <route edges="6377119 -6336235#3 -6336235#2 -6336235#1 -6336233#5 6327902#0 6327902#1 6327902#2 39158025#1 39158025#2 39158025#3 417292858#0 417292915#1 417292915#2 417292893#1 6324437#1 6338594 -28948302#0"/>
        <param key="has.bluelight.device" value="true"/>
    </vehicle>