<?xml version="1.0" encoding="UTF-8"?>

<!-- generated on 2026-05-11 18:49:02.024263 by Eclipse SUMO randomTrips.py v0.0.0
<configuration>
    <net-file value="map.net.xml"/>
    <route-file value="ambulance_random.rou.xml"/>
    <prefix value="ambulance_"/>
    <trip-attributes value="type=&quot;ambulance&quot; departLane=&quot;best&quot; departPos=&quot;free&quot; departSpeed=&quot;max&quot;"/>
    <validate value="False"/>
    <begin value="30.0"/>
    <end value="7200.0"/>
    <period value="60.0"/>
</configuration>
-->

<!-- generated on 2026-05-11T18:49:01.984059-08:00 by Eclipse SUMO duarouter 1.26.0
<duarouterConfiguration xmlns:xsi="http://www.w3.org/2001/XMLSchema-instance" xsi:noNamespaceSchemaLocation="http://sumo.dlr.de/xsd/duarouterConfiguration.xsd">

    <input>
        <net-file value="map.net.xml"/>
        <route-files value="trips.trips.xml"/>
    </input>

    <output>
        <output-file value="ambulance_random.rou.xml"/>
        <alternatives-output value="NUL"/>
    </output>

    <time>
        <begin value="30.0"/>
        <end value="7200.0"/>
    </time>

    <report>
        <no-warnings value="true"/>
        <ignore-errors value="true"/>
        <no-step-log value="true"/>
    </report>

</duarouterConfiguration>
-->

<routes xmlns:xsi="http://www.w3.org/2001/XMLSchema-instance" xsi:noNamespaceSchemaLocation="http://sumo.dlr.de/xsd/routes_file.xsd">
    <vType id="ambulance"
           vClass="emergency"
           accel="3.5"
           decel="7.0"
           emergencyDecel="9.0"
           maxSpeed="25"
           sigma="0.2"
           color="1,0,0"
           guiShape="emergency"
           lcCooperative="1.0"
           lcStrategic="1.0"
           lcSpeedGain="1.0"/>

    <vehicle id="ambulance_0" type="ambulance" depart="30.00" departLane="best" departPos="free" departSpeed="max">
        <route edges="6323686#3 -183343319#1 -183343319#0 -1006587671 -1458754572 1006590592#0 1006590592#1 417304363#0 417304363#1 417304363#2 51711521 417303918#0 417303918#1 417303925 417303877 417303932#2 6399437#1 6399437#2 6399437#4 6399437#5 417080873 196052475 196052469#1 -196052488#0 -196052483#0 -48843086#3 -48843086#2 -196052476#2 -196052476#1 -196052476#0 -196052490#2 196052468 -196052468"/>
        <param key="has.bluelight.device" value="true"/>
    </vehicle>
    <vehicle id="ambulance_1" type="ambulance" depart="90.00" departLane="best" departPos="free" departSpeed="max">
        <route edges="-6360071#4 -6360071#3 6318442 -6333202#3 -6333202#2 -6333202#1 -6392835#1 6372811#8 6372811#9 6372811#11 6372811#12 1417018746 1032904190 1032904191 51711519 417304373 51711520 505520944 1006590591#0 1006590591#1 1006590591#2 1458754572 1006587671 183343319#0 6348736#0 6348736#1 -6348736#1"/>
        <param key="has.bluelight.device" value="true"/>
    </vehicle>
    <vehicle id="ambulance_2" type="ambulance" depart="150.00" departLane="best" departPos="free" departSpeed="max">
        <route edges="6344510#1 -6344510#1 6395408#1 6354386#6 6354386#7 417300116#0 417300116#1 417300074 39160227 417313417 417313408#0 417313408#1 417108507#1 417108507#2 417108507#3 417108485#1 417108496#0 417108496#1 417108516#0 417108516#1 417108516#2 417108497#0 619117731#1 417108040#0 417108040#1 417108040#2 417108040#3 1074156520 1074156521 1074156522 1009413083#0 1009413083#1 417108037#0 417108037#1 732948134 505518493 417108014#0 6402191#1 6402191#2 6402191#3 6402191#4 6336558#0 6336558#1 6336558#2"/>
        <param key="has.bluelight.device" value="true"/>
    </vehicle>
    <vehicle id="ambulance_3" type="ambulance" depart="210.00" departLane="best" departPos="free" departSpeed="max">
        <route edges="6388093#1 -6388093#1 -6384548#1 -1418187541#1 -1418187541#0 -726987950 417310765#1 417310765#2 417310765#3 417310758#0 417310758#1 417310723 417310780#1 417310780#2 417310780#3 417107143#0 417107143#1 417310742 284651224 281424983#0 281424983#1 1417018746 1032904190 1032904191 51711519 417304373 51711520 505520944 1006590591#0 1006590591#1 1006590591#2 1458754572 1006587671 183343319#0 183343319#1 -6323686#3 -6323686#2 -6323686#1"/>
        <param key="has.bluelight.device" value="true"/>
    </vehicle>
    <vehicle id="ambulance_4" type="ambulance" depart="270.00" departLane="best" departPos="free" departSpeed="max">
        <route edges="-6407534#6 6407534#6 6373080#0 6373080#1 6373080#2 6399437#4 6399437#5 417080873 196052475 196052469#1 -196052488#0 -196052483#0 -48843086#3 -48843086#2 -196052476#2 -196052476#1 -196052476#0 -196052490#2 196052468 -196052480#3"/>
        <param key="has.bluelight.device" value="true"/>
    </vehicle>
    <vehicle id="ambulance_6" type="ambulance" depart="390.00" departLane="best" departPos="free" departSpeed="max">
        <route edges="-196052470 -196052486#0 196052476#2 48843086#2 48843086#3 48843086#4 196052488#0 -196052469#1 -196052469#0 -417080877 -6399437#5 -6399437#4 -6399437#2 -6399437#1 -6399437#0 417303911#0 417303911#1 392662326#1 392662327#1 1006590591#0 1006590591#1 1006590591#2 1458754572 1006587671 183343319#0 6348736#0 6348736#1 6346654#2 6346654#3 -6346654#3"/>
        <param key="has.bluelight.device" value="true"/>
    </vehicle>
    <vehicle id="ambulance_7" type="ambulance" depart="450.00" departLane="best" departPos="free" departSpeed="max">
        <route edges="6327466 6327460#0 6327460#1 6327460#3 6327461#0 501003453 -429277534#2 -429277534#1 -1449585284#7 -1449585284#6 -1449585284#4 -1449585284#2 -1449585284#1 -1449585284#0 -1006582017#0 -1006582013 1006582016#0 1006582016#1 417307883#2 417307878 417307895#0 417307895#1"/>
        <param key="has.bluelight.device" value="true"/>
    </vehicle>
    <vehicle id="ambulance_8" type="ambulance" depart="510.00" departLane="best" departPos="free" departSpeed="max">
        <route edges="-6347217#7 -6347217#6 -6347217#5 -6347217#4 -6347217#3 31400763#0 31400763#1 573973107 417310794#0 417310818#0 417310818#1 417310818#2 417310798 417310805#0 417310823#3 417310823#4 93204529 93204659 417307873#0 417307893#2 422356766#1 422356766#2 6342335#1 501003457 501003458"/>
        <param key="has.bluelight.device" value="true"/>
    </vehicle>
    <vehicle id="ambulance_9" type="ambulance" depart="570.00" departLane="best" departPos="free" departSpeed="max">
        <route edges="6358563#1 -6346654#4 -6346654#3 -6346654#2 -6348736#1 -6348736#0 -183343319#0 -1006587671 -1458754572 1006590592#0 1006590592#1 1006590594 31399269 394390159 417107144 1032903357#0 1032903357#1 1032903357#2 1032903358 417310731 1094432479#1 1094432479#2 1094432479#3 308993224#0 308993224#1 308993224#2 -1094432479#3 -1094432479#2"/>
        <param key="has.bluelight.device" value="true"/>
    </vehicle>
    <vehicle id="ambulance_10" type="ambulance" depart="630.00" departLane="best" departPos="free" departSpeed="max">
        <route edges="6356574#2 6356574#3 6356574#4 -6336610#5 -6336610#4 -6336610#3 -6336610#2 -6336610#1 -6336610#0 -1449585284#7 -1449585284#6 -1449585284#4 -1449585284#2 -1449585284#1 -1449585284#0 -1006582017#0 -1006582013 1006582016#0 1006582016#1 417307883#2 417307867 93205535 93206018 417307877 417307870 417307864#1 417310830#3 417310830#5 417310808#0 417310812#1 417310791 417310787 417310815 417310801 417300093#0 417300116#0 417300116#1 417300074 -6372386#1 -6392465#2 -6392465#1 -6392465#0 6340606#0"/>
        <param key="has.bluelight.device" value="true"/>
    </vehicle>
    <vehicle id="ambulance_11" type="ambulance" depart="690.00" departLane="best" departPos="free" departSpeed="max">
        <route edges="-6385445 -6364007#0 -6342335#5 -6342335#4 -6342335#3 -6342335#1 -6342335#0 -422356766#1 -422356766#0 93205535 93206018 417307877 417307870 417307864#1 417310780#1 417310780#2 417310780#3 417107143#0 417107143#1 417310742 284651224 281424983#0 281424983#1 -6372811#12 -6372811#11 1124919096 6365490#2 -6339980#3 -6339980#2 -6339980#1"/>
        <param key="has.bluelight.device" value="true"/>
    </vehicle>
    <vehicle id="ambulance_12" type="ambulance" depart="750.00" departLane="best" departPos="free" departSpeed="max">
        <route edges="6407464#4 -6407464#4 -6407464#3 -6407464#2 -6407464#1 -6342516#0 -677362510 -1449624716#0 677362511#0 232551445#2 232551445#3 232551445#4 417122348#0 -730328996#0 -6374301#1 -6374301#0 -6341864#0 -6388093#11 -6388093#10 -6388093#9 -6388093#8 -6388093#6 -6388093#5 -6388093#4 -6388093#3 -6388093#1 -6388093#0"/>
        <param key="has.bluelight.device" value="true"/>
    </vehicle>
    <vehicle id="ambulance_13" type="ambulance" depart="810.00" departLane="best" departPos="free" departSpeed="max">
        <route edges="-6325975#8 -6325975#7 -6325975#6 -6325975#5 501003443#0 183343319#0 183343319#1 183343319#2 183343319#3 183343319#4 183343319#5 183343319#6 1449584627#1 1449584627#2 1449584627#4 1006582015#0 1006582015#1 1006582015#2 1006582015#3 1006582015#4 1006582015#6 1006582013 1006582017#0 1006582017#1 1449585284#1 1449585284#2 1449585284#4 356667475#1 6327688 -6327687#1"/>
        <param key="has.bluelight.device" value="true"/>
    </vehicle>
    <vehicle id="ambulance_14" type="ambulance" depart="870.00" departLane="best" departPos="free" departSpeed="max">
        <route edges="6371622 6370109#1 6370109#2 -6386469#1 -6367169 -6342335#7 -6342335#6 -6342335#5 -6342335#4 -6342335#3 -6342335#1 -6342335#0 -422356766#1 -422356766#0 417307865#1 417307862 417307878 417307880#1 417307880#2 417307880#3 417307861#0 417307861#1 417307861#2 417307863 417307890#0 417307890#1 417307890#2 417080886#0 429013977#2 429013977#3 429013977#4 429013990#3 429013990#4 429013990#6 429013990#8 429013990#9 429013990#12 429013990#13 429013990#15 429013990#16 539777199#1 539777199#4 592258657#4"/>
        <param key="has.bluelight.device" value="true"/>
    </vehicle>
    <vehicle id="ambulance_15" type="ambulance" depart="930.00" departLane="best" departPos="free" departSpeed="max">
        <route edges="6356691#0 6356691#1 -417307891#2 -417307891#1 -417307891#0 -6346837#6 -6344928#7 -6344928#6 6344928#6"/>
        <param key="has.bluelight.device" value="true"/>
    </vehicle>
    <vehicle id="ambulance_16" type="ambulance" depart="990.00" departLane="best" departPos="free" departSpeed="max">
        <route edges="417108487 417108496#0 417108496#1 417108516#0 417108516#1 417108516#2 417108497#0 417107170#1 517160354#0 517160354#1 417107146#0 417310762 417310747 417310765#1 417310765#2 417310765#3 417310758#0 417310758#1 417310723 417310780#1 417310780#2 417310780#3 417107143#0 417107143#1 1094432479#1 1094432479#2 1094432479#3 308993224#0 6362757 724037296"/>
        <param key="has.bluelight.device" value="true"/>
    </vehicle>
    <vehicle id="ambulance_17" type="ambulance" depart="1050.00" departLane="best" departPos="free" departSpeed="max">
        <route edges="-6398880#2 -6398880#1 -6398880#0 6354850#1 -6391769 -575444972#0 93204950#1 417307886#1 417307886#2 417307889#1 581910236#1 417307876#0 417307876#1 417307876#2 417307876#3 417307883#0 417307883#1 417307883#2 417307867 93205535 93206018 417307877 417307870 417307864#1 417310830#3 417310830#5 417310808#0 417310812#1 417310791 573973107 417310794#0"/>
        <param key="has.bluelight.device" value="true"/>
    </vehicle>
    <vehicle id="ambulance_18" type="ambulance" depart="1110.00" departLane="best" departPos="free" departSpeed="max">
        <route edges="6364497#1 6364497#2 6364497#3 6364497#4 6364497#5 1449576552#1 1449576552#2 618336868#0 618336868#1 618336868#3 618336868#5 697663663#0 697663663#1 417107165#1 417107165#2 417107165#3 417107152 618458898#0 417107170#1 517160354#0 517160354#1 417107146#0 417310762 417310747 417310765#1 417310765#2 417310765#3 417310758#0 417310758#1 417310723 417310830#3 -6322392#2 -6322392#1 6322392#1"/>
        <param key="has.bluelight.device" value="true"/>
    </vehicle>
    <vehicle id="ambulance_19" type="ambulance" depart="1170.00" departLane="best" departPos="free" departSpeed="max">
        <route edges="6376663#0 -6376667 6407444#1 6407444#2 6407444#3 6407444#4 6407444#5 6407444#6 6407437#0 -1449585284#4 -1449585284#2 -1449585284#1 -1449585284#0 -1006582017#0 -1006582013 -1006582015#6 -1006582015#4 -1006582015#3 417307861#0 417307861#1 417307861#2 417307863 417307890#0 417307890#1 417307890#2 417080886#0 429013977#2 429013977#3 429013977#4 429013990#3 429013990#4 429013990#6 429013990#8 429013990#9 429013990#12 429013990#13 429013990#15"/>
        <param key="has.bluelight.device" value="true"/>
    </vehicle>
    <vehicle id="ambulance_20" type="ambulance" depart="1230.00" departLane="best" departPos="free" departSpeed="max">
        <route edges="6338951 -6335924#1 -6335924#0 -28867532#3 -28867532#2 6380874#0 6380874#1 -183343319#6 -183343319#5 -183343319#4 -183343319#3 -183343319#2 -183343319#1 -183343319#0 -1006587671 -1458754572 1006590592#0 1006590592#1 1006590594 31399269 394390159 417107144 1032903357#0 1032903357#1 1032903357#2 1032903358 417310731 1094432479#1 1094432479#2 1094432479#3 308993224#0 308993224#1 -314492964#1 -314492964#0"/>
        <param key="has.bluelight.device" value="true"/>
    </vehicle>
    <vehicle id="ambulance_21" type="ambulance" depart="1290.00" departLane="best" departPos="free" departSpeed="max">
        <route edges="-6347909#2 6347909#2 6347909#3 6347909#4 6347909#5 6347909#6 31400763#1 573973107 417310794#0 417310818#0 417310818#1 417310818#2 417310798 417310805#0 417310823#3 417310823#4 93204529 93204659 417307873#0 417307865#1 417307862 417307878 417307880#1 417307880#2 417307880#3 1006582015#3 1006582015#4 1006582015#6 1006582013 1006582017#0 1006582017#1 1449585284#1 1449585284#2 1449585284#4 1449585284#6 6332531#0 6332531#1 6332531#2 6332531#3 6332531#4 -6370449#3 -6370449#2"/>
        <param key="has.bluelight.device" value="true"/>
    </vehicle>
    <vehicle id="ambulance_22" type="ambulance" depart="1350.00" departLane="best" departPos="free" departSpeed="max">
        <route edges="-592258656#0 -539777197#1 -429013990#13 -429013990#12 -429013990#9 -429013990#8 -429013990#6 -429013990#4 -429013990#3 -429013977#4 -429013977#3 -429013977#2 93204950#1 417307886#1 417307886#2 417307889#1 581910236#1 417307876#0 1006582012#0 1006582012#1 1006582013 1006582017#0 1006582017#1 1449585284#1 1449585284#2 1449585284#4 356667475#1 -6407444#6 -6407444#5 -6407444#4 -6407444#3 -6407444#2 6354869 -6350510#0 -6350510#1"/>
        <param key="has.bluelight.device" value="true"/>
    </vehicle>
    <vehicle id="ambulance_23" type="ambulance" depart="1410.00" departLane="best" departPos="free" departSpeed="max">
        <route edges="-6328173#1 -726987952#5 -726987952#4 -726987952#3 -726987952#2 -726987952#1 -1449584929#4 -1449584929#3 -1449584929#2 -1449584929#1 417307870 417307864#1 417310780#1 417310780#2 417310780#3 417107143#0 417107143#1 417310742 284651224 281424983#0 281424983#1 1417018746 1032904190 1032904191 51711519 417304373 51711520 505520944 417304363#0 417304363#1 417304363#2 51711521 417303918#0 417303918#1 417303925 417303877 417303884#1 417303901 500535182 -6365927#4 -6365927#2 -6365927#1"/>
        <param key="has.bluelight.device" value="true"/>
    </vehicle>
    <vehicle id="ambulance_24" type="ambulance" depart="1470.00" departLane="best" departPos="free" departSpeed="max">
        <route edges="6318442 6333202#5 6333202#6 -6320969#1 6360062#2 573973107 417310794#0 417310818#0 417310818#1 417310818#2 417310798 417310805#0 417310823#3 417310823#4 93204529 93204659 417307873#0 417307893#2 422356766#1 422356766#2 6342335#1 6342335#3 -6399322"/>
        <param key="has.bluelight.device" value="true"/>
    </vehicle>
    <vehicle id="ambulance_25" type="ambulance" depart="1530.00" departLane="best" departPos="free" departSpeed="max">
        <route edges="-6395347#0 -6339585#2 -6342591 6356574#2 6356574#3 6356574#4 -6336610#5 -6336610#4 -6336610#3 -6336610#2 -6336610#1 -6336610#0 -1449585284#7 -1449585284#6 -1449585284#4 -1449585284#2 -1449585284#1 -1449585284#0 -1006582017#0 -1006582013 1006582016#0 1006582016#1 417307883#2 417307867 93205535 93206018 417307877 417307870 697663671#0 697663671#1 417310772#3 417310754#0 -726987949#0 -1449586124#7 -1449586124#6 -1449586124#5 -1449586124#4 -1449586124#3 -1449586124#2 -6347217#15 -6347217#14"/>
        <param key="has.bluelight.device" value="true"/>
    </vehicle>
    <vehicle id="ambulance_26" type="ambulance" depart="1590.00" departLane="best" departPos="free" departSpeed="max">
        <route edges="-6358563#3 -6358563#2 -6358563#1 -6358563#0 -183343319#3 -183343319#2 -183343319#1 -183343319#0 -1006587671 -1458754572 1006590592#0 1006590592#1 392662074 1357116663 1053810218 394390163 47232548#2 394391948 6321456 994910220 26972116 1027350438 58186819#0 417312276 417312290 517170221 6339594#2 6404011#1 6404011#2 6404011#3 6404019#0"/>
        <param key="has.bluelight.device" value="true"/>
    </vehicle>
    <vehicle id="ambulance_27" type="ambulance" depart="1650.00" departLane="best" departPos="free" departSpeed="max">
        <route edges="6327460#1 6327460#3 6327461#0 501003453 -429277534#2 -429277534#1 -1449585284#7 -1449585284#6 -1449585284#4 -1449585284#2 -1449585284#1 -1449585284#0 -1006582017#0 -1006582013 1006582016#0 1006582016#1 417307883#2 417307867 93205535 93206018 417307877 417307870 697663671#0 697663671#1 417310772#3 417310754#0 417310769#1 417310769#2 417310769#3 417310769#4 417107148 417107149#2 417107161#0 417107161#1 619117731#1 417108040#0 417108040#1 417108040#2 417108040#3 1074156520 1074156521 1074156522 618336873#0"/>
        <param key="has.bluelight.device" value="true"/>
    </vehicle>
    <vehicle id="ambulance_28" type="ambulance" depart="1710.00" departLane="best" departPos="free" departSpeed="max">
        <route edges="-6341805#1 -6341805#0 -6365250#0 -6363865#0 6356574#4 -6336610#5 -6336610#4 -6336610#3 -6336610#2 -6336610#1 -6336610#0 -1449585284#7 -1449585284#6 -1449585284#4 -1449585284#2 -1449585284#1 -1449585284#0 -1006582017#0 -1006582013 1006582016#0 1006582016#1 417307883#2 417307867 -417307891#3 -417307891#2 -417307891#1 -417307891#0 -6346837#6 -6344928#7 -6344928#6 -6344928#5 -6344928#4 -6344928#3 6344928#3"/>
        <param key="has.bluelight.device" value="true"/>
    </vehicle>
    <vehicle id="ambulance_29" type="ambulance" depart="1770.00" departLane="best" departPos="free" departSpeed="max">
        <route edges="-6340606#3 6340606#3 6340606#4 6398785#1 417313417 417313408#0 417313408#1 417108507#1 417108507#2 417108507#3 417108485#1 417108496#0 417108496#1 417108516#0 417108516#1 417108516#2 417108497#0 619117731#1 417108040#0 417108040#1 417108040#2 417108040#3 1074156520 1074156521 1074156522 1009413083#0 1009413083#1 417108037#0 417108037#1 732948134 505518493 417108014#0 6402191#1 6402191#2 6402191#3 6402191#4 6402191#5 6402191#6 -6402191#6"/>
        <param key="has.bluelight.device" value="true"/>
    </vehicle>
    <vehicle id="ambulance_30" type="ambulance" depart="1830.00" departLane="best" departPos="free" departSpeed="max">
        <route edges="841934544#0 -545964290#2 -545964290#1 -545964290#0 517160354#1 417107146#0 417310762 417310747 417310765#1 417310765#2 417310765#3 417310758#0 417310758#1 417310723 417310823#3 417310823#4 93204529 93204659 417307873#0 417307865#1 417307862 417307878 417307880#1 417307880#2 417307880#3 1006582015#3 1006582015#4 1006582015#6 1006582013 1006582017#0 1006582017#1 1449585284#1 1449585284#2 1449585284#4 1449585284#6 1449585284#7 429277534#1 429277534#2 6327468 6327461#2 6327464#0 6329848"/>
        <param key="has.bluelight.device" value="true"/>
    </vehicle>
    <vehicle id="ambulance_31" type="ambulance" depart="1890.00" departLane="best" departPos="free" departSpeed="max">
        <route edges="417307862 417307867 93205535 93206018 417307877 417307870 697663671#0 697663671#1 417310772#3 417310754#0 417310769#1 417310769#2 417310769#3 417310769#4 417107148 417107149#2 417107161#0 417107161#1 619117731#1 417108040#0 417108040#1 417108040#2 417108040#3 -6368415#2 -6368415#1 -6387663#0 6338439#1 6338439#2"/>
        <param key="has.bluelight.device" value="true"/>
    </vehicle>
    <vehicle id="ambulance_32" type="ambulance" depart="1950.00" departLane="best" departPos="free" departSpeed="max">
        <route edges="6369985#2 6402838#2 6402838#3 6402838#4 -6365927#7 -6365927#6 6365911 417303892 395977821#0 417303911#0 417303911#1 392662326#1 392662327#1 392662074 1357116663 1053810218 394390163 47232548#2 394391948 6321456 994910220 26972116 1027350438 58186819#0 417312276 417312290 417312302#0 417312302#1 1449624716#0 1449624716#1 -6349251#6 6349251#6"/>
        <param key="has.bluelight.device" value="true"/>
    </vehicle>
    <vehicle id="ambulance_33" type="ambulance" depart="2010.00" departLane="best" departPos="free" departSpeed="max">
        <route edges="-6347932 6353811#1 6353811#2 48843086#1 -196052476#2 -196052476#1 -196052476#0 -196052490#2 -196052490#1"/>
        <param key="has.bluelight.device" value="true"/>
    </vehicle>
    <vehicle id="ambulance_34" type="ambulance" depart="2070.00" departLane="best" departPos="free" departSpeed="max">
        <route edges="-6373253#1 6373253#1 6345281 -6340623#0 -6332531#4 -6332531#3 -6332531#2 -6332531#1 -6332531#0 -1449585284#6 -1449585284#4 -1449585284#2 -1449585284#1 -1449585284#0 -1006582017#0 -1006582013 1006582016#0 1006582016#1 417307883#2 417307867 93205535 93206018 417307877 417307870 417307864#1 417310780#1 417310780#2 417310780#3 417107143#0 417107143#1 1094432479#1 1094432479#2 1094432479#3 308993224#0 6362757 -6362757"/>
        <param key="has.bluelight.device" value="true"/>
    </vehicle>
    <vehicle id="ambulance_35" type="ambulance" depart="2130.00" departLane="best" departPos="free" departSpeed="max">
        <route edges="-6346733#1 417310769#3 417310769#4 417107148 417310762 417310747 417310765#1 417310765#2 417310765#3 417310758#0 417310758#1 417310723 417310823#3 417310823#4 93204529 93204659 417307873#0 417307893#2 422356766#1 422356766#2 6342335#1 6342335#3 6342335#4 6342335#5 6342335#6 6342335#7 6342335#8 6405636#0"/>
        <param key="has.bluelight.device" value="true"/>
    </vehicle>
    <vehicle id="ambulance_36" type="ambulance" depart="2190.00" departLane="best" departPos="free" departSpeed="max">
        <route edges="6383643#0 -6383643#0 6364007#2 6364007#3 6364007#4 -429277534#1 6336610#0 6336610#1 6336610#2 6336610#3 6328700#0 -823806536#1 -6380533"/>
        <param key="has.bluelight.device" value="true"/>
    </vehicle>
    <vehicle id="ambulance_37" type="ambulance" depart="2250.00" departLane="best" departPos="free" departSpeed="max">
        <route edges="6328249 -6347760#1 -6347760#0 61350901 -196052480#2 -196052477#8 -196052477#7 -196052477#4 -196052477#3 -196052477#1 -196052477#0 196052488#0 -196052469#1 -196052469#0 -417080877 -6399437#5 -6399437#4 -6399437#2 -6399437#1 -6399437#0 417303911#0 417303911#1 392662326#1 392662327#1 1006590591#0 1006590591#1 1006590591#2 1458754572 1006587671 183343319#0 183343319#1 183343319#2 183343319#3 183343319#4 183343319#5 183343319#6 1449584627#1 1449584627#2 1449584627#4 1006582015#0 1006582015#1 1006582015#2 1006582015#3 1006582015#4 1006582015#6 1006582013 1006582017#0 1006582017#1 1449585284#1 1449585284#2 1449585284#4 356667475#1 -6407444#6 -6407444#5 -6407444#4 -6407444#3 -6407444#2 6407081 -6407079#0 -6407079#1"/>
        <param key="has.bluelight.device" value="true"/>
    </vehicle>
    <vehicle id="ambulance_38" type="ambulance" depart="2310.00" departLane="best" departPos="free" departSpeed="max">
        <route edges="6398785#12 6398785#13 6398785#14 6398785#15 -6345489 6359771#1 6359771#2 6359771#3 6359771#5 6359771#6 6359771#7 6359771#8 417310762 417310747 417310765#1 417310765#2 417310765#3 417310758#0 417310758#1 417310723 417310823#3 417310823#4 93204529 93204659 417307873#0 417307865#1 417307862 417307878 417307880#1 417307880#2 417307880#3 417307861#0 417307861#1 417307861#2 417307863 417307890#0 417307890#1 417307890#2 417080886#0 423513765#2 -237416387#9 168656250#6"/>
        <param key="has.bluelight.device" value="true"/>
    </vehicle>
    <vehicle id="ambulance_39" type="ambulance" depart="2370.00" departLane="best" departPos="free" departSpeed="max">
        <route edges="-6357399#2 6358085 -6383328#5 -429277534#3 -429277534#2 -429277534#1 -1449585284#7 -1449585284#6 -1449585284#4 -1449585284#2 -1449585284#1 -1449585284#0 -1006582017#0 -1006582013 -1006582015#6 -1006582015#4 -1006582015#3 -1006582015#2 -1006582015#1 -1006582015#0 -1006587670 -1449584627#2 -1449584627#1 -183343319#6 -183343319#5 -183343319#4 -183343319#3 -183343319#2 -6323686#3 6325975#0 6325975#1 -6356037#3 -6356037#2 -6356037#1"/>
        <param key="has.bluelight.device" value="true"/>
    </vehicle>
    <vehicle id="ambulance_40" type="ambulance" depart="2430.00" departLane="best" departPos="free" departSpeed="max">
        <route edges="417307883#0 417307883#1 417307883#2 417307867 93205535 93206018 417307877 417307870 697663671#0 697663671#1 417310772#3 417310754#0 417310769#1 417310769#2 417310769#3 417310769#4 417107148 417107149#2 417107161#0 417107161#1 619117731#1 417108040#0 417108040#1 417108040#2 417108040#3 1074156520 1074156521 1074156522 618336873#0 618336873#1 618336873#2 618336873#3 618336873#4 -6360973#1"/>
        <param key="has.bluelight.device" value="true"/>
    </vehicle>
    <vehicle id="ambulance_41" type="ambulance" depart="2490.00" departLane="best" departPos="free" departSpeed="max">
        <route edges="423636022#1 423636022#2 93204950#1 417307886#1 417307886#2 417307889#1 581910236#1 417307876#0 417307876#1 417307876#2 417307876#3 417307883#0 417307883#1 417307883#2 417307867 93205535 93206018 417307877 417307870 417307864#1 417310830#3 417310830#5 417310808#0 -6392835#9 -6392835#8 -6392835#7 -6392835#6 -6392835#4 -6392835#3 -6392835#2 6392835#2"/>
        <param key="has.bluelight.device" value="true"/>
    </vehicle>
    <vehicle id="ambulance_42" type="ambulance" depart="2550.00" departLane="best" departPos="free" departSpeed="max">
        <route edges="-6403207#0 -6345937#0 -6398880#0 6354850#1 -6391769 -575444972#0 93204950#1 417307886#1 417307886#2 417307889#1 581910236#1 417307876#0 417307876#1 417307876#2 417307876#3 417307883#0 417307883#1 417307883#2 417307867 93205535 93206018 417307877 417307870 417307864#1 417310830#3 417310830#5 417310808#0 417310812#1 417310791 417310787 417310815 -6347909#6 -6347909#5"/>
        <param key="has.bluelight.device" value="true"/>
    </vehicle>
    <vehicle id="ambulance_44" type="ambulance" depart="2670.00" departLane="best" departPos="free" departSpeed="max">
        <route edges="-6325975#1 -6325975#0 6323686#3 183343319#2 183343319#3 183343319#4 183343319#5 183343319#6 1449584627#1 1449584627#2 1449584627#4 1006582015#0 1006582015#1 1006582015#2 1006582015#3 417307883#0 417307883#1 417307883#2 -6327789#0 -357560819#1"/>
        <param key="has.bluelight.device" value="true"/>
    </vehicle>
    <vehicle id="ambulance_45" type="ambulance" depart="2730.00" departLane="best" departPos="free" departSpeed="max">
        <route edges="-6330540#2 -6333906 730336951 697663665#0 -6359771#8 -6359771#7 -6359771#6 -6359771#5 -6359771#3 -6359771#2 -6359771#1 6345489 -6398785#15 6327052"/>
        <param key="has.bluelight.device" value="true"/>
    </vehicle>
    <vehicle id="ambulance_46" type="ambulance" depart="2790.00" departLane="best" departPos="free" departSpeed="max">
        <route edges="6352155#1 -6399188#0 6359771#2 6359771#3 6359771#5 6359771#6 6359771#7 6359771#8 417107149#2 417107161#0 417107161#1 417107170#1 517160354#0 545964290#0 545964290#1 -841934545"/>
        <param key="has.bluelight.device" value="true"/>
    </vehicle>
    <vehicle id="ambulance_47" type="ambulance" depart="2850.00" departLane="best" departPos="free" departSpeed="max">
        <route edges="-429013989#2 -429013989#1 429013988#4 -429013990#9 -429013990#8 -429013990#6 -429013990#4 -429013990#3 -429013977#4 -429013977#3 -429013977#2 93204950#1 417307886#1 417307886#2 417307889#1 581910236#1 417307876#0 417307876#1 417307876#2 417307876#3 -1006582015#3 -1006582015#2 -1006582015#1 -1006582015#0 -1006587670 -1449584627#2 -1449584627#1 -183343319#6 -183343319#5 -183343319#4 -183343319#3 -183343319#2 -183343319#1 -183343319#0 -1006587671 -1458754572 1006590592#0 1006590592#1 417304363#0 417304363#1 417304363#2 51711521 417303918#0 417303918#1 417303925 417303877 417303932#2 6399437#1 6399437#2 -6373080#2 -6402793"/>
        <param key="has.bluelight.device" value="true"/>
    </vehicle>
    <vehicle id="ambulance_49" type="ambulance" depart="2970.00" departLane="best" departPos="free" departSpeed="max">
        <route edges="697663669#0 697663669#1 417310765#2 417310765#3 417310758#0 417310758#1 417310723 417310772#2 417310772#3 417310754#0 417310769#1 417310769#2 417310769#3 417310769#4 417107148 417107149#2 417107161#0 417107161#1 619117731#1 417108040#0 417108040#1 417108040#2 417108040#3 1074156520 1074156521 1074156522 1009413083#0 1009413083#1 417108037#0 417108037#1 732948134 505518493 417108014#0 6402191#1 6402191#2 6402191#3 6402191#4 6402191#5 6402191#6 6359411#0 6359411#1 -6379109#2 6379109#2"/>
        <param key="has.bluelight.device" value="true"/>
    </vehicle>
    <vehicle id="ambulance_50" type="ambulance" depart="3030.00" departLane="best" departPos="free" departSpeed="max">
        <route edges="-1418187541#2 -1418187541#1 -1418187541#0 -726987950 417310769#1 417310769#2 417310769#3 417310769#4 417107148 417107149#2 417107161#0 417107161#1 619117731#1 417108040#0 417108040#1 417108040#2 417108040#3 1074156520 1074156521 1074156522 618336875#0 618336875#1 618336875#2 618336875#3 -6372145#1 -6372145#0 6342988"/>
        <param key="has.bluelight.device" value="true"/>
    </vehicle>
    <vehicle id="ambulance_51" type="ambulance" depart="3090.00" departLane="best" departPos="free" departSpeed="max">