<?xml version="1.0" encoding="UTF-8"?>

<!-- generated on 2026-06-06 14:25:37.239359 by Eclipse SUMO randomTrips.py v0.0.0
<configuration>
    <net-file value="/Users/keshav/Downloads/sumo_traffic_project/new_map.net.xml"/>
    <route-file value="/Users/keshav/Downloads/sumo_traffic_project/background_train_all_0p6_seed2.rou.xml"/>
    <prefix value="all_0p6_s2_car_"/>
    <trip-attributes value="type=&quot;car&quot; departLane=&quot;best&quot; departPos=&quot;free&quot; departSpeed=&quot;max&quot;"/>
    <seed value="2"/>
    <validate value="False"/>
    <end value="7200.0"/>
    <period value="0.6"/>
</configuration>
-->

<!-- generated on 2026-06-06T14:25:36.102471-08:00 by Eclipse SUMO duarouter 1.26.0
<duarouterConfiguration xmlns:xsi="http://www.w3.org/2001/XMLSchema-instance" xsi:noNamespaceSchemaLocation="http://sumo.dlr.de/xsd/duarouterConfiguration.xsd">

    <input>
        <net-file value="/Users/keshav/Downloads/sumo_traffic_project/new_map.net.xml"/>
        <route-files value="trips.trips.xml"/>
    </input>

    <output>
        <output-file value="/Users/keshav/Downloads/sumo_traffic_project/background_train_all_0p6_seed2.rou.xml"/>
        <alternatives-output value="NUL"/>
    </output>

    <time>
        <begin value="0.0"/>
        <end value="7200.0"/>
    </time>

    <report>
        <no-warnings value="true"/>
        <ignore-errors value="true"/>
        <no-step-log value="true"/>
    </report>

</duarouterConfiguration>
-->

<routes xmlns:xsi="http://www.w3.org/2001/XMLSchema-instance" xsi:noNamespaceSchemaLocation="http://sumo.dlr.de/xsd/routes_file.xsd">
    <vType id="car"
           accel="2.6"
           decel="4.5"
           emergencyDecel="9.0"
           maxSpeed="13.9"
           sigma="0.5"
           lcCooperative="1.0"
           lcStrategic="1.0"
           lcSpeedGain="1.0"
           jmIgnoreKeepClearTime="-1"
           jmDriveAfterYellowTime="-1"
           jmDriveAfterRedTime="-1"/>

    <vehicle id="all_0p6_s2_car_0" type="car" depart="0.00" departLane="best" departPos="free" departSpeed="max">
        <route edges="6407284 -6364012#0 6335137#8 6335137#9 6335137#10 6335137#11 6335137#12 6335137#13 1385457143#0 1385457143#1 1385457143#3 1385457143#4 1385457143#5 1385457144#0 1385457144#1 6393295#1 6393295#2 6393295#4 6393295#5 6393295#6 6393295#7 6407199#10 6407199#11"/>
    </vehicle>
    <vehicle id="all_0p6_s2_car_1" type="car" depart="0.60" departLane="best" departPos="free" departSpeed="max">
        <route edges="-156504067#9 -156504067#8 -6344437#6 -6344437#5 -6344437#4 -6344437#3 -6344437#2 -6327105#6 -6327105#5 -6327105#4 -6327105#3 -6327105#2 -6327105#1 -1125517937#1 -1125517937#0 -319667116#14 -319667116#12 -319667116#10 -319667116#9"/>
    </vehicle>
    <vehicle id="all_0p6_s2_car_2" type="car" depart="1.20" departLane="best" departPos="free" departSpeed="max">
        <route edges="6369540#0 -6369540#0 -6327902#9 -6327902#8 -6327902#2 -6327902#1 -6327902#0 6336233#5 6336235#1 6336235#2 6336235#3"/>
    </vehicle>
    <vehicle id="all_0p6_s2_car_3" type="car" depart="1.80" departLane="best" departPos="free" departSpeed="max">
        <route edges="475725675#1 417292915#2 417292893#1 417292893#2 475725674 424154144#0 424154144#1 1030355059 39158024#0 39158024#1 39158024#2 39158024#3 417292843#0 1417060922#1 417109152 417109132 39158023#0 732311661#1 732311661#2 417109218 1365136392 417099885#0 417099885#1 417099885#2 417099885#3 417099885#4 417099885#5 417099885#7 417099885#8 417099885#9 417099885#10 417099885#11 417099871 37436237#0 37436237#1 37436237#2 1384102708 417712050 417099875 417099863 417099854 -1125518056 -6377054#2"/>
    </vehicle>
    <vehicle id="all_0p6_s2_car_4" type="car" depart="2.40" departLane="best" departPos="free" departSpeed="max">
        <route edges="417101890#1 417101890#2 417109117 417109147#0 417109147#1 417109127 417109137 417101777 417101776#1 417101870#0 -725202076#5 -725202076#4 -725202076#3 -725202076#2 -725202076#1 -725202076#0 -725202075#4 -725202075#3 -725202075#2 -725202075#0 -6346214#9 -6346214#8 -6346214#7 -6346214#6 -6346214#5 -6346214#4 -6346214#3 -6346214#2 417104875#1 417104875#2 417104823 417104750 417104854#0"/>
    </vehicle>
    <vehicle id="all_0p6_s2_car_6" type="car" depart="3.60" departLane="best" departPos="free" departSpeed="max">
        <route edges="-747497971 417109174 417109196 417109200 417109192 417109221#0 417109221#1 417109221#2 417109221#3 417109221#4 417109221#5 417109221#6 417109221#7 119466342#0 119466342#1 119466342#2 119466342#3 1107630020 119466143 417109209#0 417109209#1 1107630019#1 1107630019#2 1107630019#3 1107630019#4 -6407199#12 -6407199#11 -6407199#10 -6407199#9 -6407199#7 -6407199#6 -6407199#5 -6407199#4 -6407199#3 -6407199#2 -6407199#1 -6407199#0"/>
    </vehicle>
    <vehicle id="all_0p6_s2_car_8" type="car" depart="4.80" departLane="best" departPos="free" departSpeed="max">
        <route edges="6407199#11 6407199#12 -1107630019#4 -1107630019#3 -1107630019#2 -1107630019#1 -417109209#1 -417109209#0 -119466143 -1107630020 -119466342#3 -119466342#2 -119466342#1 -119466342#0 -417109221#7 -417109221#6 -417109221#5 -417109221#4 -417109221#3 -417109221#2 -417109221#1 -417109221#0 -417109192 -417109200 -417109196 -417109174 -417109206 -1107630021 -1389397840 -417109203 -417109184 -417109170 -417109193 417109215#0 417109215#1 417109177#0 732311661#1 732311661#2 417109218 1365136392 417099885#0 417099885#1 417099885#2 417099885#3 417099885#4 417099885#5 417099885#7 417099885#8 417099885#9 417099885#10 417099885#11 417099871 37436237#0 37436237#1 37436237#2 1384102708 417712050 417099875 417099863 417099854 125343972#1 1125518057 1477882846 319199244"/>
    </vehicle>
    <vehicle id="all_0p6_s2_car_10" type="car" depart="6.00" departLane="best" departPos="free" departSpeed="max">
        <route edges="-1389397840 -417109203 -417109184 -417109170 -417109193 417109215#0 417109215#1 417109177#0 732311661#1 732311661#2 417109218 1365136392 417099885#0 417099885#1 417099885#2 -417099885#2 -417099885#1 -417099885#0 -1365136392"/>
    </vehicle>
    <vehicle id="all_0p6_s2_car_13" type="car" depart="7.80" departLane="best" departPos="free" departSpeed="max">
        <route edges="221422255#4 6363343#1 -1125518055#1 -1125518055#0 -417712041 -417712050 -1384102708 -37436237#2 37436237#2"/>
    </vehicle>
    <vehicle id="all_0p6_s2_car_16" type="car" depart="9.60" departLane="best" departPos="free" departSpeed="max">
        <route edges="1477882846 160251184#1 417099849 184856734 417099872 160251185 -417712046 -417099863 -1125518046#5 -1125518046#4 -1125518046#3 -1125518046#2 -1125518046#1 -1125518046#0 -984096239#2 -984096239#1 -984096239#0 6343008#0 6343008#1 -6343008#1 -6343008#0 984096239#0 984096239#1"/>
    </vehicle>
    <vehicle id="all_0p6_s2_car_17" type="car" depart="10.20" departLane="best" departPos="free" departSpeed="max">
        <route edges="524701754#1 -524701754#1 6387866 1485597391 122220077#1 122220077#2 122220077#3 122220077#4 417099805#0 417099805#1 417099805#2 417099785#1 417099825#0 160251184#1 417099849 184856734 417099872 160251185 -417712046 -417099863 -417712041 -417712050 -1384102708 -37436237#2 -37436237#1 -37436237#0 -417099871 -417099885#11 -417099885#10 -417099885#9 -417099885#8 -417099885#7 -417099885#5 -417099885#4 -417099885#3 -417099885#2 -417099885#1 -417099885#0 -1365136392 154200665 417109211#0 732311660 417292856 417292872 518175685 417292836#0 -6327902#2 -6327902#1 -6327902#0 6336233#5 6335430#0 6335430#1 6335430#2 6335430#3 6335430#4 6335430#6 6335430#7 -6335430#7 -6335430#6"/>
    </vehicle>
    <vehicle id="all_0p6_s2_car_19" type="car" depart="11.40" departLane="best" departPos="free" departSpeed="max">
        <route edges="6336214#0 6336214#1 -6336214#1 -6336214#0 -417099885#5 -417099885#4 -417099885#3 -417099885#2 -417099885#1 -417099885#0 -1365136392 6377773#3 6377773#4 6377773#5 6377773#6 6377773#7 6377773#8 6377773#9 6377773#10 6377773#11 6377773#12 6377773#13 417109137 417101777 6393379#2 6393379#3"/>
    </vehicle>
    <vehicle id="all_0p6_s2_car_23" type="car" depart="13.80" departLane="best" departPos="free" departSpeed="max">
        <route edges="6340539#7 6340539#8 122220077#3 122220077#4 417099805#0 417099805#1 417099805#2 -6334288#4 -6334288#2 6334288#2"/>
    </vehicle>
    <vehicle id="all_0p6_s2_car_25" type="car" depart="15.00" departLane="best" departPos="free" departSpeed="max">
        <route edges="1385403723#0 1385403723#1 -1385403723#1 -1385403723#0 -417109184 -417109170 -417109193 417109215#0 417109215#1 417109177#0 732311661#1 732311661#2 417109218 1365136392 417099885#0 417099885#1 417099885#2 417099885#3 417099885#4 417099885#5 417099885#7 417099885#8 417099885#9 417099885#10 417099885#11 417099871 37436237#0 37436237#1 37436237#2 1384102708 417712050 417099875 1125518055#0 1125518055#1 -6363343#1 -221422255#4 6398405"/>
    </vehicle>
    <vehicle id="all_0p6_s2_car_26" type="car" depart="15.60" departLane="best" departPos="free" departSpeed="max">
        <route edges="1417023209#4 1417023207#0 1417023207#2 1417023208 417110670#0 -417110670#0 -1417023208 -1417023207#2 -1417023207#0 -1417023209#4 -1417023209#2 -1417023209#1 -1417023209#0 -417110704#1 -417110704#0 -1341691756#1 -1341691756#0 -30915802#3 -30915802#2 -30915802#1 -30915802#0 -417110699#1 -417109209#1 -417109209#0 -119466143 -1107630020 -119466342#3 -119466342#2 -119466342#1 -119466342#0 -417109221#7 -417109221#6 -417109221#5 -417109221#4 -417109221#3 -417109221#2 -417109221#1 -417109221#0 -417109192 -417109200 -417109196 -417109174 -417109206 -1107630021 -1389397840 -417109203 -417109184 -417109170 -417109193 417109215#0 417109215#1 417109177#0 732311661#1 732311661#2 417109218 1365136392 417099885#0 417099885#1 417099885#2 417099885#3 417099885#4 417099885#5 417099885#7 417099885#8 417099885#9 417099885#10 417099885#11 417099871 37436237#0 37436237#1 37436237#2 1384102708 417712050 417099875 417099863 417099854 -1125518056 -6377054#2 -6377054#1 6369773"/>
    </vehicle>
    <vehicle id="all_0p6_s2_car_28" type="car" depart="16.80" departLane="best" departPos="free" departSpeed="max">
        <route edges="6388594#0 6388594#1 6335137#0 6335137#1 417292893#1 417292893#2 475725674 424154144#0 424154144#1 1030355059 39158024#0 39158024#1 39158024#2 39158024#3 417292843#0 1417060922#1 417109152 417109132 39158023#0 732311661#1 732311661#2 417109218 1365136392 417099885#0 417099885#1 417099885#2 417099885#3 417099885#4 417099885#5 417099885#7 417099885#8 417099885#9 417099885#10 417099885#11 417099871 37436237#0 37436237#1 37436237#2 1384102708 417712050 417099875 -1125518046#5 -1125518046#4 -1125518046#3 -1125518046#2 1125518046#2"/>
    </vehicle>
    <vehicle id="all_0p6_s2_car_29" type="car" depart="17.40" departLane="best" departPos="free" departSpeed="max">
        <route edges="39158024#1 39158024#2 39158024#3 417292843#0 -6327902#2 -6327902#1 -6327902#0 -6336233#3 -6336233#2 -6336233#1 -6336233#0 6396921#0"/>
    </vehicle>
    <vehicle id="all_0p6_s2_car_30" type="car" depart="18.00" departLane="best" departPos="free" departSpeed="max">
        <route edges="6335137#10 6335137#11 6335137#12 6335137#13 1385457143#0 1385457143#1 1385457143#3 1385457143#4"/>
    </vehicle>
    <vehicle id="all_0p6_s2_car_32" type="car" depart="19.20" departLane="best" departPos="free" departSpeed="max">
        <route edges="6330455 6352824#3 6352824#4 6352824#5 6352824#6 6352824#7 6352824#8 6352824#9 6352824#10 417292872 518175685 417292836#0 1417060922#1 417109152 417109132 39158023#0 732311661#1 732311661#2 417109218 1365136392 417099885#0 417099885#1 417099885#2 417099885#3 417099885#4 417099885#5 417099885#7 417099885#8 417099885#9 417099885#10 417099885#11 417099871 37436237#0 37436237#1 37436237#2 1384102708 417712050 417099875 417099863 417099854 125343972#1 6347235 1477882845 242565446 1091171443 417099771#1 417104919#1 417104919#2 417104919#3 417104919#4 417104919#5 417104919#6 417104861#0 417104861#1 122220077#1 122220077#2 -6340539#8 -6340539#7 -6340539#6 -6333423"/>
    </vehicle>
    <vehicle id="all_0p6_s2_car_33" type="car" depart="19.80" departLane="best" departPos="free" departSpeed="max">
        <route edges="6393295#1 -1341691756#1 -1341691756#0 -30915802#3 -30915802#2 -30915802#1 -30915802#0 -417110699#1 -417109209#1 -417109209#0 -119466143 -1107630020 -119466342#3 -119466342#2 -119466342#1 -119466342#0 -417109221#7 -417109221#6 -417109221#5 -417109221#4 -417109221#3 -417109221#2 -417109221#1 -417109221#0 -417109192 -417109200 -417109196 -417109174 -417109206 -1107630021 -1389397840 -417109203 1385403723#0 1385403723#1 6361345#0 -6361345#0"/>
    </vehicle>
    <vehicle id="all_0p6_s2_car_34" type="car" depart="20.40" departLane="best" departPos="free" departSpeed="max">
        <route edges="6393379#2 -6393379#2 417101884#0 417101884#1 417101812 -6377773#13 -6377773#12 -6377773#11 -6377773#10 -6377773#9 -6377773#8 -6377773#7 -6377773#6 -6377773#5 -6377773#4 -6377773#3 -6377773#1 -6377773#0"/>
    </vehicle>
    <vehicle id="all_0p6_s2_car_36" type="car" depart="21.60" departLane="best" departPos="free" departSpeed="max">
        <route edges="1417060922#1 417109152 417109132 39158023#0 732311661#1 732311661#2 417109218 1365136392 417099885#0 417099885#1 417099885#2 417099885#3 417099885#4 417099885#5 417099885#7 417099885#8 417099885#9 417099885#10 417099885#11 417099871 37436237#0 37436237#1 37436237#2 1384102708 417712050 417099875 1125518055#0 1125518055#1 -6363343#1 -221422255#4 -221422255#3 -221422255#2 -6342850 221422255#1"/>
    </vehicle>
    <vehicle id="all_0p6_s2_car_37" type="car" depart="22.20" departLane="best" departPos="free" departSpeed="max">
        <route edges="417292855#1 1072970839 417292857#0 1030355060#1 1030355059 39158024#0 39158024#1 39158024#2 39158024#3 417292843#0 1417060922#1 417109152 417109132 39158023#0 732311661#1 732311661#2 417109218 1365136392 417099885#0 417099885#1 417099885#2 417099885#3 417099885#4 417099885#5 417099885#7 417099885#8 417099885#9 417099885#10 417099885#11 417099871 37436237#0 37436237#1 37436237#2 1384102708 417712050 417099875"/>
    </vehicle>
    <vehicle id="all_0p6_s2_car_38" type="car" depart="22.80" departLane="best" departPos="free" departSpeed="max">
        <route edges="-6377773#0 6377773#0 6377773#1 154200665 417109211#0 732311660 417292856 417292872 518175685 417292836#0 39158025#1 39158025#2 39158025#3 417292858#0 243743797#1 417292827#0 6363296#3 6402363#2 -6340656#0"/>
    </vehicle>
    <vehicle id="all_0p6_s2_car_39" type="car" depart="23.40" departLane="best" departPos="free" departSpeed="max">
        <route edges="1481680718#0 1481680718#1 6342879#0 6342879#1 6342879#2 6342879#3 -30915802#2 -30915802#1 -30915802#0 -417110699#1 -417109209#1 -417109209#0 -119466143 -1107630020 -119466342#3 -119466342#2 -119466342#1 -119466342#0 -417109221#7 -417109221#6 -417109221#5 -417109221#4 -417109221#3 -417109221#2 -417109221#1 -417109221#0 -417109192 -417109200 -417109196 -417109174 -417109206 -1107630021 -1389397840 -417109203 -417109184 -417109170 -417109193 417109215#0 417109215#1 417109177#0 732311661#1 732311661#2 417109218 1365136392 417099885#0 417099885#1 417099885#2 417099885#3 417099885#4 417099885#5 417099885#7 417099885#8 417099885#9 417099885#10 417099885#11 417099871 37436237#0 -6402225#2 -6402225#1 6402225#1 6402225#2"/>
    </vehicle>
    <vehicle id="all_0p6_s2_car_40" type="car" depart="24.00" departLane="best" departPos="free" departSpeed="max">
        <route edges="417109152 417109132 39158023#0 732311662#1 732311662#2 732311662#3 417109194 417109193 417109170 417109184 417109203 119466373 1107630021 417109206 417109174 417109196 417109200 417109192 417109221#0 417109221#1 417109221#2 417109221#3 417109221#4 417109221#5 417109221#6 417109221#7 119466342#0 119466342#1 119466342#2 119466342#3 1107630020 119466143 417109209#0 417109209#1 417110699#1 30915802#0 30915802#1 30915802#2 30915802#3 1341691756#0 1341691756#1 -6393295#1 -6393295#0 -1385457144#0 -1385457143#5 -1385457143#4 -1385457143#3 -1385457143#1 -1385457143#0 -6322077 844708974#1 844708973#1 -28948303#5 -28948303#4 -28948303#3"/>
    </vehicle>
    <vehicle id="all_0p6_s2_car_41" type="car" depart="24.60" departLane="best" departPos="free" departSpeed="max">
        <route edges="6361345#2 6361345#3 -6397701#2 -6397701#1 -6397701#0 -1385403723#1 -1385403723#0 -417109184 -417109170 -417109193 417109215#0 417109215#1 417109177#0 732311660 417292856 417292872 518175685 417292836#0 -6327902#2 -6327902#1 -6327902#0 6336233#5 6335430#0 6335430#1 6335430#2 6335430#3 6335430#4"/>
    </vehicle>
    <vehicle id="all_0p6_s2_car_42" type="car" depart="25.20" departLane="best" departPos="free" departSpeed="max">
        <route edges="6393295#1 -6393295#1 -6393295#0 -1385457144#0 -1385457143#5 -1385457143#4 -1385457143#3 -1385457143#1 -1385457143#0 -6335137#13 -6335137#12 -6335137#11 -6335137#10 -6335137#9 -6335137#8 -6335137#7 417292893#1 417292893#2 475725674 417292889#0 -6350903#1 6337807#0 -6347643#0 -6336411#0"/>
    </vehicle>
    <vehicle id="all_0p6_s2_car_43" type="car" depart="25.80" departLane="best" departPos="free" departSpeed="max">
        <route edges="6337954#0 417101890#2 417109117 417109147#0 417109147#1 417109127 -6377773#13 -6377773#12 -6377773#11 -6377773#10 -6377773#9 -6377773#8 -6377773#7 -6377773#6 -6377773#5 -6377773#4 -6377773#3 1365136392 417099885#0 417099885#1 417099885#2 417099885#3 417099885#4 417099885#5 417099885#7 417099885#8 417099885#9 417099885#10 417099885#11 417099871 37436237#0 37436237#1 37436237#2 1384102708 417712050 417099875 1125518055#0 1125518055#1 -6363343#1 -221422255#4 -221422255#3 -221422255#2"/>
    </vehicle>
    <vehicle id="all_0p6_s2_car_45" type="car" depart="27.00" departLane="best" departPos="free" departSpeed="max">
        <route edges="-6344437#2 -6344437#1 -6347924#5 -6347924#4 -6369876#3 -6369876#2 6352738#0 -6332221#3 -6332221#2 -6332221#1 -6332221#0 -6344516#2 -6344516#1 -6344516#0 1125168399#0 6381688#0"/>
    </vehicle>
    <vehicle id="all_0p6_s2_car_46" type="car" depart="27.60" departLane="best" departPos="free" departSpeed="max">
        <route edges="-417099885#11 -417099885#10 -417099885#9 -417099885#8 -417099885#7 -417099885#5 -417099885#4 -417099885#3 -417099885#2 -417099885#1 -417099885#0 -1365136392 154200665 417109211#0 732311662#1 732311662#2 732311662#3 417109194 417109193 417109170 417109184 417109203 119466373 1107630021 417109206 237427644#1 -237427640#1 -237427640#0 237427639#1"/>
    </vehicle>
    <vehicle id="all_0p6_s2_car_48" type="car" depart="28.80" departLane="best" departPos="free" departSpeed="max">
        <route edges="-6340539#8 -6340539#7 6340539#7 6340539#8 122220077#3 122220077#4 417099805#0 417099805#1 417099805#2 417099785#1 417099825#0 160251184#1 417099849 184856734 417099872 160251185 -417712046 -417099863 -417712041 -417712050 -1384102708 -37436237#2 -37436237#1 -37436237#0 -417099871 -417099885#11 -417099885#10 -417099885#9 -417099885#8 -417099885#7 -417099885#5 -417099885#4 -417099885#3 -417099885#2 -417099885#1 -417099885#0 -1365136392 154200665 417109211#0 417101890#1 -6337954#0 6385767#3 6385767#4"/>
    </vehicle>
    <vehicle id="all_0p6_s2_car_49" type="car" depart="29.40" departLane="best" departPos="free" departSpeed="max">
        <route edges="-743199093#5 -743199093#2 -743199093#1 743199098#2 743199094#4 743199094#5 417109152 417109132 39158023#0 732311661#1 732311661#2 417109218 1365136392 417099885#0 417099885#1 417099885#2 417099885#3 417099885#4 417099885#5 417099885#7 417099885#8 417099885#9 417099885#10 417099885#11 417099871 -6362169#4 -6362169#3 6334312#1 6334312#2"/>
    </vehicle>
    <vehicle id="all_0p6_s2_car_51" type="car" depart="30.60" departLane="best" departPos="free" departSpeed="max">
        <route edges="-6333535#1 -6333535#0 417109192 417109221#0 417109221#1 417109221#2 417109221#3 417109221#4 417109221#5 417109221#6 417109221#7 119466342#0 119466342#1 119466342#2 119466342#3 1107630020 119466143 417109209#0 417109209#1 417110699#1 30915802#0 30915802#1 30915802#2 30915802#3 1341691756#0 1341691756#1 417110704#0 417110704#1 1417023209#0 1417023209#1 1417023209#2 1417023209#4 1417023207#0 1417023207#2 1417023208 417110670#0 417110670#2 417110670#3 417110670#4 417110670#5 417110675 417109239#0 417109239#1 417109252 417292908#0 417292908#1 417292908#2 417292908#3 58533716#0"/>
    </vehicle>
    <vehicle id="all_0p6_s2_car_54" type="car" depart="32.40" departLane="best" departPos="free" departSpeed="max">
        <route edges="-119466342#2 -119466342#1 -119466342#0 -417109221#7 -417109221#6 -417109221#5 -417109221#4 -417109221#3 -417109221#2 -417109221#1 -417109221#0 -417109192 -417109200 -417109196 -417109174 -417109206 -1107630021 -1389397840 -417109203 -417109184 -417109170 -417109193 417109215#0 417109215#1 417109177#0 732311660 417292856 -6352824#10"/>
    </vehicle>
    <vehicle id="all_0p6_s2_car_56" type="car" depart="33.60" departLane="best" departPos="free" departSpeed="max">
        <route edges="-6335430#3 -6335430#2 -6335430#1 -6335430#0 -6336233#5 6327902#0 6327902#1 6327902#2 1417060922#1 417109152 417109132 39158023#0 732311661#1 732311661#2 417109218 -6377773#1 -6377773#0 -6329960#1 6329960#1"/>
    </vehicle>
    <vehicle id="all_0p6_s2_car_59" type="car" depart="35.40" departLane="best" departPos="free" departSpeed="max">
        <route edges="-1389412805 37437877 -37436237#1 -37436237#0 -417099871 -417099885#11 -417099885#10 -417099885#9 -417099885#8 -417099885#7 -417099885#5 -417099885#4 -417099885#3 -417099885#2 -417099885#1 -417099885#0 -1365136392 154200665 417109211#0 732311660 417292856 417292872 518175685 417292836#0 39158025#1 39158025#2 39158025#3 417292858#0 417292915#1 417292915#2 -6335137#1 -6335137#0 -6388594#1 -6388594#0"/>
    </vehicle>
    <vehicle id="all_0p6_s2_car_60" type="car" depart="36.00" departLane="best" departPos="free" departSpeed="max">
        <route edges="417104907#2 417104888#0 6346214#2 6346214#3 6346214#4 6346214#5 6346214#6 6346214#7 6346214#8 6346214#9 725202074#1 725202074#2 725202074#3 725202074#4 725202072 725202073#1 725202073#2 725202073#3 1418368559#0 1418368559#1 243741313#1 243741313#2 243741313#3 417101878 417101787#1 417101787#2 417101787#3 417101772#0 417101884#0 417101884#1 417101812 417101889 417109111 417109156 417109161#0 732311660 417292856 417292872 518175685 417292836#0 39158025#1 39158025#2 39158025#3 417292858#0 417292915#1 417292915#2 417292893#1 6324437#1 6338594"/>
    </vehicle>
    <vehicle id="all_0p6_s2_car_61" type="car" depart="36.60" departLane="best" departPos="free" departSpeed="max">
        <route edges="-417109193 417109215#0 417109215#1 417109177#0 732311661#1 732311661#2 417109218 1365136392 417099885#0 417099885#1 417099885#2 417099885#3 417099885#4 417099885#5 417099885#7 417099885#8 417099885#9 417099885#10 417099885#11 417099871 37436237#0 37436237#1 37436237#2 1384102708 417712050 417099875 417099863 417099854 125343972#1 6347235 1477882845 242565446 1091171443 417099771#1 417104919#1 417104919#2 417104919#3 417104919#4 417104919#5 417104919#6 417104861#0 417104861#1 -6387869#0 -6387866"/>
    </vehicle>
    <vehicle id="all_0p6_s2_car_63" type="car" depart="37.80" departLane="best" departPos="free" departSpeed="max">
        <route edges="6342879#3 30915802#3 1341691756#0 1341691756#1 -6393295#1 -6393295#0 -1385457144#0 -1385457143#5 -1385457143#4 -1385457143#3 -1385457143#1 -1385457143#0 -6335137#13 -6335137#12 -6335137#11 -6335137#10 -6335137#9 -6335137#8 -6335137#7 417292893#1 417292893#2 475725674 417292889#0 -6350903#1 6337807#0"/>
    </vehicle>
    <vehicle id="all_0p6_s2_car_65" type="car" depart="39.00" departLane="best" departPos="free" departSpeed="max">
        <route edges="6377773#12 6377773#13 417109137 417101777 417101776#1 417101870#0 -725202076#5 -6331370#5 6331370#5"/>
    </vehicle>
    <vehicle id="all_0p6_s2_car_69" type="car" depart="41.40" departLane="best" departPos="free" departSpeed="max">
        <route edges="6380579#1 6380579#2 -6380579#2 -6380579#1 -6380579#0 -417109200 -417109196 -417109174 -417109206 -1107630021 -1389397840 -417109203 -417109184 -417109170 -417109193 417109215#0 417109215#1 417109177#0 732311661#1 732311661#2 417109218 1365136392 417099885#0 417099885#1 417099885#2 417099885#3 417099885#4 417099885#5 417099885#7 417099885#8 417099885#9 417099885#10 417099885#11 417099871 37436237#0 37436237#1 37436237#2 1384102708 417712050 417099875 417099863 417099854 125343972#1 6347235 1477882845 242565446 1091171443 417099771#1 417104919#1 417104919#2 417104919#3 417104919#4 417104919#5 417104919#6 417104861#0 417104861#1 417104907#0 -524701754#1 -524701754#0"/>
    </vehicle>
    <vehicle id="all_0p6_s2_car_70" type="car" depart="42.00" departLane="best" departPos="free" departSpeed="max">
        <route edges="417099764 319204819#1 119466108 6348243 417099872 160251185 -1125518056 -6377976#4 -6377976#3 -6377976#2 -6377976#1 -6377973#2 -6377973#1 -6407074"/>
    </vehicle>
    <vehicle id="all_0p6_s2_car_73" type="car" depart="43.80" departLane="best" departPos="free" departSpeed="max">
        <route edges="417101890#1 417101890#2 417109117 417109156 417109161#0 732311660 417292856 417292872 518175685 417292836#0 6327902#8 6327902#9 743199098#1 743199093#1 743199093#2 743199093#5 743199093#6 743199093#7 -743199094#1"/>
    </vehicle>
    <vehicle id="all_0p6_s2_car_75" type="car" depart="45.00" departLane="best" departPos="free" departSpeed="max">
        <route edges="-6326974 -6366623#1 -6366626 -723606274 417099715 417099641 417099658 417099694 216938526#0 216938526#1 216938526#2 -216938526#2 -216938526#1 -216938526#0"/>
    </vehicle>
    <vehicle id="all_0p6_s2_car_77" type="car" depart="46.20" departLane="best" departPos="free" departSpeed="max">
        <route edges="-37436237#2 -37436237#1 -37436237#0 -417099871 -417099885#11 -417099885#10 -417099885#9 -417099885#8 -417099885#7 -417099885#5 -417099885#4 -417099885#3 -417099885#2 -417099885#1 -417099885#0 -1365136392 154200665 417109211#0 732311662#1 732311662#2 732311662#3 417109194 417109193 417109170 417109184 417109203 119466373 1107630021 417109206 417109174 417109196 417109200 417109192 417109221#0 417109221#1 417109221#2 417109221#3 417109221#4"/>
    </vehicle>
    <vehicle id="all_0p6_s2_car_78" type="car" depart="46.80" departLane="best" departPos="free" departSpeed="max">
        <route edges="1418368559#1 243741313#1 243741313#2 243741313#3 417101878 417101787#1 417101787#2 417101787#3 417101772#0 417101884#0 417101884#1 417101812 417101889 417109111 417109156 417109161#0 732311662#1 732311662#2 732311662#3 417109194 417109193 417109170 417109184 417109203 119466373 1107630021 417109206 747497971 747497972#3"/>
    </vehicle>
    <vehicle id="all_0p6_s2_car_83" type="car" depart="49.80" departLane="best" departPos="free" departSpeed="max">
        <route edges="6331370#5 725202076#5 417101787#1 417101787#2 417101787#3 417101772#0 417101884#0 417101884#1 417101812 417101889 417109111 417109156 417109161#0 732311660 417292856 -6352824#10 -6352824#9 -6352824#8 -6352824#7 -6352824#6 -6352824#5 -6352824#4 -6352824#3 -6352824#2"/>
    </vehicle>
    <vehicle id="all_0p6_s2_car_84" type="car" depart="50.40" departLane="best" departPos="free" departSpeed="max">
        <route edges="-743199093#5 -743199093#2 -743199093#1 743199098#2 743199094#4 743199094#5 417109152 417109132 39158023#0 732311662#1 732311662#2 732311662#3 417109194 417109193 417109170 417109184 417109203 119466373 1107630021 417109206 237427644#1"/>
    </vehicle>
    <vehicle id="all_0p6_s2_car_85" type="car" depart="51.00" departLane="best" departPos="free" departSpeed="max">
        <route edges="-1107630019#4 -1107630019#3 -1107630019#2 -1107630019#1 417110699#1 30915802#0 30915802#1 30915802#2 30915802#3 1341691756#0 1341691756#1 -6393295#1 -6393295#0 -1385457144#0"/>
    </vehicle>
    <vehicle id="all_0p6_s2_car_86" type="car" depart="51.60" departLane="best" departPos="free" departSpeed="max">
        <route edges="-6408084 6329960#1 6377773#0 6377773#1 154200665 417109211#0 732311662#1 732311662#2 732311662#3 417109194 417109193 417109170 417109184 417109203 119466373 -1389397840 -417109203"/>
    </vehicle>
    <vehicle id="all_0p6_s2_car_90" type="car" depart="54.00" departLane="best" departPos="free" departSpeed="max">
        <route edges="160251184#1 417099849 184856734 417099872 160251185 -1125518056 1125518056"/>
    </vehicle>
    <vehicle id="all_0p6_s2_car_91" type="car" depart="54.60" departLane="best" departPos="free" departSpeed="max">
        <route edges="-6377054#1 6377054#1 6377054#2 1125518056 -417712046 -417099863 -417712041 -417712050 -1384102708 -37436237#2 -37436237#1 -37436237#0 -417099871 -417099885#11 -417099885#10 -417099885#9 -417099885#8 -417099885#7 -417099885#5 -417099885#4 -417099885#3 -417099885#2 -417099885#1 -417099885#0 -1365136392 154200665 417109211#0 732311662#1 732311662#2 732311662#3 417109194 417109193 417109170 417109184 417109203 119466373 1107630021 417109206 417109174 417109196 417109200 417109192 417109221#0 417109221#1 417109221#2 417109221#3 417109221#4 417109221#5 417109221#6 417109221#7 119466342#0 119466342#1 119466342#2 119466342#3 1107630020 119466143 417109209#0 417109209#1 417110699#1 30915802#0 30915802#1 30915802#2 30915802#3 1341691756#0 1341691756#1 417110704#0 417110704#1 1417023209#0 1417023209#1 1417023209#2 1417023209#4 1417023207#0 1417023207#2 1417023208 417110670#0 417110670#2 417110670#3 417110670#4"/>
    </vehicle>
    <vehicle id="all_0p6_s2_car_92" type="car" depart="55.20" departLane="best" departPos="free" departSpeed="max">
        <route edges="-6340646#2 -6335430#3 -6335430#2 -6335430#1 -6335430#0 -6336233#5 6327902#0 6327902#1 6327902#2 1417060922#1 417109152 417109132 39158023#0 417101890#1 417101890#2 417109117 417109147#0 417109147#1 417109127 417109137 417101777 6393379#2 6393379#3"/>
    </vehicle>