<?xml version="1.0" encoding="UTF-8"?>

<!-- generated on 2026-05-24 16:38:04.729739 by Eclipse SUMO randomTrips.py v0.0.0
<configuration>
    <net-file value="/Users/keshav/Downloads/sumo_traffic_project/new_map.net.xml"/>
    <route-file value="/Users/keshav/Downloads/sumo_traffic_project/background_train_0p6_seed3.rou.xml"/>
    <prefix value="train_0p6_s3_car_"/>
    <trip-attributes value="type=&quot;car&quot; departLane=&quot;best&quot; departPos=&quot;free&quot; departSpeed=&quot;max&quot;"/>
    <seed value="3"/>
    <validate value="False"/>
    <end value="7200.0"/>
    <period value="0.6"/>
</configuration>
-->

<!-- generated on 2026-05-24T16:38:03.659244-08:00 by Eclipse SUMO duarouter 1.26.0
<duarouterConfiguration xmlns:xsi="http://www.w3.org/2001/XMLSchema-instance" xsi:noNamespaceSchemaLocation="http://sumo.dlr.de/xsd/duarouterConfiguration.xsd">

    <input>
        <net-file value="/Users/keshav/Downloads/sumo_traffic_project/new_map.net.xml"/>
        <route-files value="trips.trips.xml"/>
    </input>

    <output>
        <output-file value="/Users/keshav/Downloads/sumo_traffic_project/background_train_0p6_seed3.rou.xml"/>
        <alternatives-output value="NUL"/>
    </output>

    <time>
        <begin value="0.0"/>
        <end value="7200.0"/>
    </time>

    <report>
        <no-warnings value="true"/>
        <ignore-errors value="true"/>
        <no-step-log value="true"/>
    </report>

</duarouterConfiguration>
-->

<routes xmlns:xsi="http://www.w3.org/2001/XMLSchema-instance" xsi:noNamespaceSchemaLocation="http://sumo.dlr.de/xsd/routes_file.xsd">
    <vType id="car"
           accel="2.6"
           decel="4.5"
           emergencyDecel="9.0"
           maxSpeed="13.9"
           sigma="0.5"
           lcCooperative="1.0"
           lcStrategic="1.0"
           lcSpeedGain="1.0"
           jmIgnoreKeepClearTime="-1"
           jmDriveAfterYellowTime="-1"
           jmDriveAfterRedTime="-1"/>

    <vehicle id="train_0p6_s3_car_0" type="car" depart="0.00" departLane="best" departPos="free" departSpeed="max">
        <route edges="-6346214#7 -6346214#6 -6346214#5 -6346214#4 -6346214#3 -6346214#2 417104833#0 417104833#1 1091171441#1 417104757 122220077#1 122220077#2 122220077#3 122220077#4 417099805#0 417099805#1 417099805#2 417099785#1 417099825#0 319199244"/>
    </vehicle>
    <vehicle id="train_0p6_s3_car_2" type="car" depart="1.20" departLane="best" departPos="free" departSpeed="max">
        <route edges="417109170 417109184 417109203 119466373 1107630021 417109206 237427644#1 -237427640#1 -237427642"/>
    </vehicle>
    <vehicle id="train_0p6_s3_car_4" type="car" depart="2.40" departLane="best" departPos="free" departSpeed="max">
        <route edges="-6352824#1 6352824#1 6352824#2 6352824#3 6352824#4 6352824#5 6352824#6 6352824#7 6352824#8 6352824#9 6352824#10 417292872 518175685 417292836#0 39158025#1 39158025#2 39158025#3 417292858#0 243743797#1 417292827#0 -6363296#1 -6346823#0"/>
    </vehicle>
    <vehicle id="train_0p6_s3_car_6" type="car" depart="3.60" departLane="best" departPos="free" departSpeed="max">
        <route edges="6369540#2 6373683#1 -6321550#2 -6321550#1 -6321550#0 -1385414077 -1385435442 -6327902#9 -6327902#8 39158025#1 39158025#2 39158025#3 417292858#0 417292915#1 417292915#2 6335137#7 6335137#8 6335137#9 6335137#10 6335137#11 6335137#12 6335137#13 1385457143#0 1385457143#1 1385457143#3 1385457143#4 1385457143#5 1385457144#0 1385457144#1 6393295#1 -1341691756#1 -1341691756#0 -30915802#3 -30915802#2 -30915802#1 -30915802#0 -417110699#1 417110692#1 1239135965 1239135966"/>
    </vehicle>
    <vehicle id="train_0p6_s3_car_7" type="car" depart="4.20" departLane="best" departPos="free" departSpeed="max">
        <route edges="417109221#6 417109221#7 119466342#0 119466342#1 119466342#2 119466342#3 1107630020 119466143 417109209#0 417109209#1 -417109209#1 -417109209#0 -119466143 -1107630020 -119466342#3 -119466342#2 -119466342#1 -119466342#0 -417109221#7 -417109221#6 -417109221#5 -417109221#4 -417109221#3 -417109221#2 -417109221#1 -417109221#0 -417109192 -417109200 -417109196 -417109174 -417109206 -1107630021 -1389397840 -417109203 -417109184 -417109170 -417109193 417109215#0 417109215#1 417109177#0 732311660 417292856 -6352824#10 -6352824#9 -6352824#8 -6352824#7 -6352824#6 -6352824#5 -6352824#4 -6352824#3 -6330455"/>
    </vehicle>
    <vehicle id="train_0p6_s3_car_8" type="car" depart="4.80" departLane="best" departPos="free" departSpeed="max">
        <route edges="417109218 154200665 417109211#0 732311660 417292856 417292872 518175685 417292836#0 39158025#1 39158025#2 39158025#3 417292858#0 243743797#1 417292827#0 6363296#3 -6402363#1 -6402363#0 6378652#1"/>
    </vehicle>
    <vehicle id="train_0p6_s3_car_10" type="car" depart="6.00" departLane="best" departPos="free" departSpeed="max">
        <route edges="518175685 417292836#0 1417060922#1 417109152 417109132 39158023#0 732311662#1 732311662#2 732311662#3 417109194 417109193 417109170 417109184 417109203 119466373 1107630021 417109206 237427644#1 -237427640#1"/>
    </vehicle>
    <vehicle id="train_0p6_s3_car_13" type="car" depart="7.80" departLane="best" departPos="free" departSpeed="max">
        <route edges="6377773#7 6377773#8 6377773#9 6377773#10 -6393582#2 -6393582#1 -6393582#0 -6358111#0 417099885#3 417099885#4 417099885#5 417099885#7 417099885#8 417099885#9 417099885#10 417099885#11 417099871 37436237#0 37436237#1 37436237#2 1384102708 417712050 417099875 417099863 417099854 125343972#1 6347235 1477882845 242565446 1091171443 417099771#1 417104919#1 417104919#2 417104919#3 417104919#4 417104919#5 417104919#6 417104861#0 417104861#1 122220077#1 122220077#2 122220077#3"/>
    </vehicle>
    <vehicle id="train_0p6_s3_car_14" type="car" depart="8.40" departLane="best" departPos="free" departSpeed="max">
        <route edges="6334288#2 6334288#4 417099785#1 417099825#0 160251184#1 417099849 184856734 417099872 160251185 -417712046 -417099863 -417712041 -417712050 -1384102708 -37436237#2 -37436237#1 -37436237#0 -417099871 -417099885#11 -417099885#10 -417099885#9 -417099885#8 -417099885#7 -417099885#5 -417099885#4 -417099885#3 -417099885#2 -417099885#1 -417099885#0 -1365136392 154200665 417109211#0 732311662#1 732311662#2 732311662#3 417109194 417109215#0 6385767#1"/>
    </vehicle>
    <vehicle id="train_0p6_s3_car_15" type="car" depart="9.00" departLane="best" departPos="free" departSpeed="max">
        <route edges="6332812 -6336233#3 -6336233#2 -6336233#1 -6376677#0 6396921#1"/>
    </vehicle>
    <vehicle id="train_0p6_s3_car_18" type="car" depart="10.80" departLane="best" departPos="free" departSpeed="max">
        <route edges="6381688#0 -6381688#0 -1125168399#0 6388184#0 6388184#1 6388184#2 6388184#3 6388184#4 6388184#5 417095584#1 417095584#2 417095584#3 417095584#4 417095586#0 417095586#1 417095586#3 417095586#4 417095586#5 -417095586#5"/>
    </vehicle>
    <vehicle id="train_0p6_s3_car_19" type="car" depart="11.40" departLane="best" departPos="free" departSpeed="max">
        <route edges="-6320720 -356707830#2 -356707830#1 319204819#1 119466108 6348243 417099872 160251185 -417712046 -417099863 -417712041 -417712050 -1384102708 -37436237#2 -37436237#1 -37436237#0 -417099871 -417099885#11 -417099885#10 -417099885#9 -417099885#8 -417099885#7 -417099885#5 -417099885#4 -417099885#3 -417099885#2 -417099885#1 -417099885#0 -1365136392 154200665 417109211#0 732311662#1 732311662#2 732311662#3 417109194 417109193 417109170 417109184 417109203 119466373 1107630021 417109206 417109174 417109196 417109200 417109192 417109221#0 417109221#1 417109221#2 417109221#3 417109221#4 417109221#5 417109221#6 417109221#7 119466342#0 119466342#1 119466342#2 119466342#3 1107630020 119466143 417109209#0 417109209#1 417110699#1 30915802#0 30915802#1 30915802#2 -6342879#3 -6342879#2"/>
    </vehicle>
    <vehicle id="train_0p6_s3_car_21" type="car" depart="12.60" departLane="best" departPos="free" departSpeed="max">
        <route edges="417109174 417109196 417109200 417109192 417109221#0 417109221#1 417109221#2 417109221#3 417109221#4 417109221#5 417109221#6 417109221#7 119466342#0 119466342#1 119466342#2 119466342#3 1107630020 119466143 417109209#0 417109209#1 417110699#1 30915802#0 30915802#1 30915802#2 30915802#3 1341691756#0 1341691756#1 -6393295#1 -6393295#0 -1385457144#0 -1385457143#5 -1385457143#4 -1385457143#3 -1385457143#1 -1385457143#0 -6335137#13 -6335137#12 -6335137#11 -6335137#10 -6335137#9 -6335137#8 -6335137#7 417292893#1 417292893#2 475725674 417292889#0 -6350903#1 6337807#0 6337807#1 -6336411#2 -82485574 -6376677#5 -6376677#4 -6376677#3 -6376677#2 -6376677#1 -6376677#0"/>
    </vehicle>
    <vehicle id="train_0p6_s3_car_22" type="car" depart="13.20" departLane="best" departPos="free" departSpeed="max">
        <route edges="1418368559#0 1418368559#1 243741313#1 243741313#2 243741313#3 417101878 417101787#1 417101787#2 417101787#3 417101772#0 417101884#0 417101884#1 417101812 417101889 417109111 417109156 417109161#0 732311660 417292856 417292872 518175685 417292836#0 39158025#1 39158025#2 39158025#3 417292858#0 243743797#1 417292827#0 6363296#3 -6402363#1"/>
    </vehicle>
    <vehicle id="train_0p6_s3_car_25" type="car" depart="15.00" departLane="best" departPos="free" departSpeed="max">
        <route edges="6321550#3 -6373683#0 -6369540#1 -6369540#0 -6327902#9 -6327902#8 1417060922#1 417109152 417109132 39158023#0 732311661#1 732311661#2 417109218 1365136392 417099885#0 417099885#1 417099885#2 417099885#3 417099885#4 417099885#5 417099885#7 417099885#8 417099885#9 417099885#10 417099885#11 417099871 37436237#0 37436237#1 37436237#2 1384102708 417712050 417099875 417099863 417099854 125343972#1 6347235 1477882845 242565446 1091171443 417099771#1 417104919#1 417104919#2 417104919#3 417104919#4 417104919#5 417104919#6 417104861#0 417104861#1 -6387869#0 6399832"/>
    </vehicle>
    <vehicle id="train_0p6_s3_car_28" type="car" depart="16.80" departLane="best" departPos="free" departSpeed="max">
        <route edges="6377773#1 6377773#3 6377773#4 6377773#5 6377773#6 6377773#7 6377773#8 6377773#9 6377773#10 6377773#11 6377773#12 6377773#13 417109137 417101777 417101776#1 417101870#0 -725202076#5 -725202076#4 -725202076#3 -725202076#2 -725202076#1 -725202076#0 -725202075#4 -725202075#3 -725202075#2 -725202075#0 725202075#0 725202075#2"/>
    </vehicle>
    <vehicle id="train_0p6_s3_car_30" type="car" depart="18.00" departLane="best" departPos="free" departSpeed="max">
        <route edges="6332812 6327902#0 6327902#1 6327902#2 1417060922#1 417109152 417109132 39158023#0 732311661#1 732311661#2 417109218 1365136392 417099885#0 417099885#1 417099885#2 417099885#3 417099885#4 417099885#5 6336214#0 6336214#1 6341506#2 -6341506#2"/>
    </vehicle>
    <vehicle id="train_0p6_s3_car_31" type="car" depart="18.60" departLane="best" departPos="free" departSpeed="max">
        <route edges="6367505 -6367505 6340935#2 6340935#3 -242562183 417095582 242562187#0 242562187#1 417095584#1 417095584#2 417095584#3 417095584#4 417095586#0 417095586#1 417095586#3 417095586#4 417095586#5"/>
    </vehicle>
    <vehicle id="train_0p6_s3_car_33" type="car" depart="19.80" departLane="best" departPos="free" departSpeed="max">
        <route edges="6376677#4 6376677#5 521790711 6336411#2 -6337807#1 -6337807#0 6350903#1 417292915#1 417292915#2 58534062#1 58534062#2 417292923#1 -82362328#5 -82362328#4 -82362328#3 -691374189 839114764"/>
    </vehicle>
    <vehicle id="train_0p6_s3_car_35" type="car" depart="21.00" departLane="best" departPos="free" departSpeed="max">
        <route edges="-725202070#1 6331370#0 6331370#1 6331370#2 6331370#4 6331370#5 725202076#5 417101787#1 417101787#2 417101787#3 417101772#0 417101884#0 417101884#1 417101812 417101889 417109111 417109156 417109161#0 732311660 417292856 -6352824#10 -6352824#9 -6352824#8 -6352824#7 -6352824#6 -6352824#5 -6352824#4 -6352824#3 -6330455"/>
    </vehicle>
    <vehicle id="train_0p6_s3_car_39" type="car" depart="23.40" departLane="best" departPos="free" departSpeed="max">
        <route edges="6334288#1 6334288#2 6334288#4 417099785#1 417099825#0 160251184#1 417099849 184856734 417099872 160251185 -417712046 -417099863 -417712041 -417712050 -1384102708 -37436237#2 -37436237#1 -37436237#0 -417099871 -417099885#11 -417099885#10 -417099885#9 -417099885#8 -417099885#7 -417099885#5 -417099885#4 -417099885#3 -417099885#2 -417099885#1 -417099885#0 -1365136392 154200665 417109211#0 417101890#1 -6337954#0 -6385767#2"/>
    </vehicle>
    <vehicle id="train_0p6_s3_car_40" type="car" depart="24.00" departLane="best" departPos="free" departSpeed="max">
        <route edges="6383121#1 -6383121#1 -6383121#0 -6335137#11 -6335137#10 -6335137#9 -6335137#8 -6335137#7 417292893#1 417292893#2 475725674 424154144#0 424154144#1 1030355059 39158024#0 39158024#1 39158024#2 39158024#3 417292843#0 6327902#8 6327902#9 743199098#1 743199093#1 743199093#2 743199093#5 743199099"/>
    </vehicle>
    <vehicle id="train_0p6_s3_car_42" type="car" depart="25.20" departLane="best" departPos="free" departSpeed="max">
        <route edges="-6377054#1 6377054#1 6377054#2 1125518056 -417712046 -417099863 -417712041 -417712050 -1384102708 -37436237#2 -37436237#1 -37436237#0 -417099871 -417099885#11 -417099885#10 -417099885#9 -417099885#8 -417099885#7 -417099885#5 -417099885#4 -417099885#3 -417099885#2 -417099885#1 -417099885#0 -1365136392 154200665 417109211#0 732311662#1 732311662#2 732311662#3 417109194 417109193 417109170 417109184 417109203 119466373 1107630021 417109206 417109174 417109196 417109200 417109192 417109221#0 417109221#1 417109221#2 417109221#3 417109221#4 417109221#5 417109221#6 417109221#7 119466342#0 119466342#1 119466342#2 119466342#3 1107630020 119466143 417109209#0 417109209#1 417110699#1 30915802#0 30915802#1 30915802#2 -30915802#2 -30915802#1 -30915802#0"/>
    </vehicle>
    <vehicle id="train_0p6_s3_car_43" type="car" depart="25.80" departLane="best" departPos="free" departSpeed="max">
        <route edges="417101776#1 417101870#0 417101787#1 417101787#2 417101787#3 417101772#0 417101884#0 417101884#1 417101812 417101889 417109111 417109156 417109161#0 732311660 417292856 417292872 518175685 417292836#0 6327902#8 6327902#9 1385435442 1385414077 -1385414077"/>
    </vehicle>
    <vehicle id="train_0p6_s3_car_44" type="car" depart="26.40" departLane="best" departPos="free" departSpeed="max">
        <route edges="-6336411#2 -82485574 -6330199 6340646#1 -6335430#3 -6335430#2 -6335430#1 -6335430#0 -6336233#5 6327902#0 6327902#1 6327902#2 1417060922#1 417109152 417109132 39158023#0 417101890#1 417101890#2 417109117 417109147#0 417109147#1 417109127 417109137 417101777 417101776#1 417101870#0 -725202076#5 -725202076#4 -725202076#3 -725202076#2 -725202076#1 -725202076#0 6402235#1 -725202074#2 -725202074#1"/>
    </vehicle>
    <vehicle id="train_0p6_s3_car_47" type="car" depart="28.20" departLane="best" departPos="free" departSpeed="max">
        <route edges="-6377773#11 6377773#11 6377773#12 6377773#13 417109137 417101777 417101776#1 417101870#0 -725202076#5 -725202076#4 -725202076#3 -725202076#2 -6347072#1 -6369691 725202070#2"/>
    </vehicle>
    <vehicle id="train_0p6_s3_car_50" type="car" depart="30.00" departLane="best" departPos="free" departSpeed="max">
        <route edges="417110670#3 417110670#4 417110670#5 417110675 -417110675 -417110670#5 -417110670#4 -417110670#3 -417110670#2 -417110670#0 -1417023208 -1417023207#2 -1417023207#0 -1417023209#4 -1417023209#2 -1417023209#1 -1417023209#0 -417110704#1 -417110704#0 -1341691756#1 -1341691756#0 -30915802#3 -30915802#2 -30915802#1 -30915802#0 -417110699#1 -417109209#1 -417109209#0 -119466143 -1107630020 -119466342#3 -119466342#2 -119466342#1 -119466342#0 -417109221#7 -417109221#6 -417109221#5 -417109221#4 -417109221#3 -417109221#2 -417109221#1 -417109221#0 -417109192 -417109200 -417109196 -417109174 -417109206 -1107630021 -1389397840 -417109203 -417109184 -417109170 -417109193 417109215#0 417109215#1 417109177#0 417101890#1 417101890#2 417109117 417109147#0 417109147#1 417109127 417109137 417101777"/>
    </vehicle>
    <vehicle id="train_0p6_s3_car_51" type="car" depart="30.60" departLane="best" departPos="free" departSpeed="max">
        <route edges="356707830#2 -356707830#2 -356707830#1 319204819#1 119466108 6348243 417099872 160251185 -417712046 -417099863 -417712041 -417712050 -1384102708 -37436237#2 -37436237#1 -37436237#0 -417099871 -417099885#11 -417099885#10 -417099885#9 -417099885#8 -417099885#7 -417099885#5 -417099885#4 -417099885#3 -417099885#2 -417099885#1 -417099885#0 -1365136392 154200665 417109211#0 732311660 417292856 417292872 518175685 417292836#0 1417060922#1 417109152"/>
    </vehicle>
    <vehicle id="train_0p6_s3_car_52" type="car" depart="31.20" departLane="best" departPos="free" departSpeed="max">
        <route edges="6402363#3 6388594#1 6335137#0 6335137#1 417292893#1 417292893#2 475725674 424154144#0 424154144#1 1030355059 39158024#0 39158024#1 39158024#2 39158024#3 417292843#0 1417060922#1 417109152 417109132 39158023#0 732311661#1 732311661#2 417109218 154200665"/>
    </vehicle>
    <vehicle id="train_0p6_s3_car_53" type="car" depart="31.80" departLane="best" departPos="free" departSpeed="max">
        <route edges="-747497972#0 -6380579#0 417109192 417109221#0 417109221#1 417109221#2 417109221#3 417109221#4 417109221#5 417109221#6 417109221#7 119466342#0 119466342#1 119466342#2 119466342#3 1107630020 119466143 417109209#0 417109209#1 417110699#1 30915802#0 30915802#1 30915802#2 30915802#3 1341691756#0 1341691756#1 -6393295#1 -6393295#0 -1385457144#0 -1385457143#5 -1385457143#4 -1385457143#3 -1385457143#1 -1385457143#0 -6335137#13 -6335137#12 6335137#12 6335137#13"/>
    </vehicle>
    <vehicle id="train_0p6_s3_car_54" type="car" depart="32.40" departLane="best" departPos="free" departSpeed="max">
        <route edges="-6346214#7 -6346214#6 -6346214#5 -6346214#4 -6346214#3 -6346214#2 417104833#0 417104833#1 1091171441#1 417104757 122220077#1 122220077#2 122220077#3 122220077#4 417099805#0 417099805#1 417099805#2 417099785#1 417099825#0 160251184#1 417099849 184856734 417099872 160251185 -417712046 -417099863 -417712041 -417712050 -1384102708 -37436237#2 -37436237#1 -37436237#0 -417099871 -417099885#11 -417099885#10 -417099885#9 -417099885#8 -417099885#7 -417099885#5 -417099885#4 -417099885#3 -417099885#2 -417099885#1 -417099885#0 -1365136392 154200665 417109211#0 732311660 417292856 417292872 518175685 417292836#0 -6327902#2 -6327902#1 -6327902#0 -6336233#3 -6336233#2 -6336233#1 -6376677#0"/>
    </vehicle>
    <vehicle id="train_0p6_s3_car_55" type="car" depart="33.00" departLane="best" departPos="free" departSpeed="max">
        <route edges="743199093#7 -743199094#1 -743199094#0 -1385414077 -1385435442 -6327902#9 -6327902#8 39158025#1 39158025#2 39158025#3 417292858#0 417292915#1 417292915#2 6335137#7 6335137#8 6335137#9 6335137#10 6335137#11 6335137#12 6335137#13 1385457143#0 1385457143#1 1385457143#3 1385457143#4 1385457143#5 1385457144#0 1385457144#1 6393295#1 6393295#2 6393295#4 6393295#5 6393295#6 6393295#7 6407199#10 6407199#11 224911193#0 224911193#1 224911193#2"/>
    </vehicle>
    <vehicle id="train_0p6_s3_car_58" type="car" depart="34.80" departLane="best" departPos="free" departSpeed="max">
        <route edges="-119466342#0 -417109221#7 -417109221#6 -417109221#5 -417109221#4 -417109221#3 -417109221#2 -417109221#1 -417109221#0 -417109192 -417109200 -417109196 -417109174 -417109206 -1107630021 -1389397840 -417109203 -417109184 -417109170 -417109193 417109215#0 417109215#1 417109177#0 417101890#1 417101890#2 417109117 417109147#0 417109147#1 417109127 417101889 417109111"/>
    </vehicle>
    <vehicle id="train_0p6_s3_car_59" type="car" depart="35.40" departLane="best" departPos="free" departSpeed="max">
        <route edges="417109209#0 417109209#1 -417109209#1 -417109209#0 -119466143 -1107630020 -119466342#3 -119466342#2 -119466342#1 -119466342#0 -417109221#7 -417109221#6 -417109221#5 -417109221#4 -417109221#3 -417109221#2 -417109221#1 -417109221#0 -417109192 -417109200 -417109196 -417109174 -417109206 -1107630021 -1389397840 -417109203 -417109184 -417109170 -417109193 417109215#0 417109215#1 417109177#0 732311661#1 732311661#2 417109218 1365136392 417099885#0 417099885#1 417099885#2 417099885#3 417099885#4 417099885#5 417099885#7 417099885#8 417099885#9 417099885#10 417099885#11 417099871 37436237#0 37436237#1 37436237#2 1384102708 417712050 417099875 1125518055#0 1125518055#1 -6363343#1 -221422255#4"/>
    </vehicle>
    <vehicle id="train_0p6_s3_car_60" type="car" depart="36.00" departLane="best" departPos="free" departSpeed="max">
        <route edges="417109177#0 732311661#1 732311661#2 417109218 1365136392 417099885#0 417099885#1 417099885#2 417099885#3 417099885#4 417099885#5 417099885#7 417099885#8 417099885#9 417099885#10 417099885#11 417099871 37436237#0 37436237#1 37436237#2 1384102708 417712050 417099875 417099863 417099854 125343972#1 1125518057 1477882846 319199244 417099764 319204819#1 119466108 1125518059"/>
    </vehicle>
    <vehicle id="train_0p6_s3_car_62" type="car" depart="37.20" departLane="best" departPos="free" departSpeed="max">
        <route edges="6331370#0 6331370#1 6331370#2 6331370#4 6331370#5 725202076#5 417101787#1 417101787#2 417101787#3 417101772#0 417101884#0 417101884#1 417101812 417101889 417109111 417109156 417109161#0 732311660 417292856 417292872 518175685 417292836#0 39158025#1 39158025#2 39158025#3 417292858#0 -6350903#1 6337807#0 -6347643#0 6336411#1"/>
    </vehicle>
    <vehicle id="train_0p6_s3_car_64" type="car" depart="38.40" departLane="best" departPos="free" departSpeed="max">
        <route edges="58533716#1 417292893#1 417292893#2 475725674 424154144#0 424154144#1 1030355059 39158024#0 39158024#1 39158024#2 39158024#3 417292843#0 1417060922#1 417109152 417109132 39158023#0 417101890#1 417101890#2 417109117 417109147#0 417109147#1 417109127 417109137 417101777 417101776#1 417101870#0 -725202076#5 -725202076#4 -725202076#3 -725202076#2 -725202076#1 -725202076#0 6402235#1 725202074#3 725202074#4"/>
    </vehicle>
    <vehicle id="train_0p6_s3_car_65" type="car" depart="39.00" departLane="best" departPos="free" departSpeed="max">
        <route edges="-6347924#5 -6347924#4 -6347924#3 -6347924#2 -6347924#1 319667116#8 319667116#9 319667116#10 319667116#12 319667116#14 1125517937#0 1125517937#1 1125517937#3"/>
    </vehicle>
    <vehicle id="train_0p6_s3_car_66" type="car" depart="39.60" departLane="best" departPos="free" departSpeed="max">
        <route edges="417099885#0 417099885#1 417099885#2 417099885#3 417099885#4 417099885#5 417099885#7 417099885#8 417099885#9 417099885#10 417099885#11 417099871 37436237#0 37436237#1 37436237#2 1384102708 417712050 417099875 417099863 417099854 -1125518056 -6377976#4"/>
    </vehicle>
    <vehicle id="train_0p6_s3_car_67" type="car" depart="40.20" departLane="best" departPos="free" departSpeed="max">
        <route edges="-6394040#0 -6391223#1 417109147#0 417109147#1 417109127 -6377773#13 -6377773#12 -6377773#11 -6377773#10 -6377773#9 -6377773#8 -6377773#7 -6377773#6 -6377773#5 -6377773#4 -6377773#3"/>
    </vehicle>
    <vehicle id="train_0p6_s3_car_71" type="car" depart="42.60" departLane="best" departPos="free" departSpeed="max">
        <route edges="39158024#3 417292843#0 -6327902#2 -6327902#1 -6327902#0 6336233#5 6336235#1"/>
    </vehicle>
    <vehicle id="train_0p6_s3_car_77" type="car" depart="46.20" departLane="best" departPos="free" departSpeed="max">
        <route edges="6368277 6373565 6334288#1 6334288#2 6334288#4 417099785#1 417099825#0 160251184#1 417099849 184856734 417099872 160251185 -417712046 -417099863 -1125518046#5 -1125518046#4 -1125518046#3 -1125518046#2 -1125518046#1 -1125518046#0 -984096239#2"/>
    </vehicle>
    <vehicle id="train_0p6_s3_car_79" type="car" depart="47.40" departLane="best" departPos="free" departSpeed="max">
        <route edges="-6385767#3 6337954#0 417101890#2 417109117 417109156 417109161#0 732311660 417292856 417292872 518175685 417292836#0 39158025#1 39158025#2 39158025#3 417292858#0"/>
    </vehicle>
    <vehicle id="train_0p6_s3_car_80" type="car" depart="48.00" departLane="best" departPos="free" departSpeed="max">
        <route edges="6386053#1 -6369876#2 -6369876#1 -6335775#1 -319667116#2 -319667116#0 -1417272589#2 -1417272589#1 -1417272589#0 -518183581#0 -518183326#1 -242562183 417095582 242562187#0 242562187#1 1125168400#0 1125168400#1 1125168400#2"/>
    </vehicle>
    <vehicle id="train_0p6_s3_car_81" type="car" depart="48.60" departLane="best" departPos="free" departSpeed="max">
        <route edges="-6343008#0 984096239#0 984096239#1 984096239#2 984096239#3 1125518046#1 1125518046#2 1125518046#3 1125518046#4 1125518046#5 -417712041 -417712050 -1384102708 -37436237#2 -37436237#1 -37436237#0 -417099871 -417099885#11 -417099885#10 -417099885#9 -417099885#8 -417099885#7 -417099885#5 -417099885#4 -417099885#3 -417099885#2 -417099885#1 -417099885#0 -1365136392 154200665 417109211#0 732311662#1 732311662#2 732311662#3 417109194 417109193 417109170 417109184 417109203 119466373 1107630021 417109206 417109174 417109196 417109200 417109192 417109221#0 417109221#1 417109221#2 417109221#3 417109221#4 417109221#5 417109221#6 417109221#7 119466342#0 119466342#1 119466342#2 119466342#3 1107630020 119466143 417109209#0 417109209#1 417110692#1 1239135965 1239135966 -1239135966 -1239135965 -417110692#1"/>
    </vehicle>
    <vehicle id="train_0p6_s3_car_82" type="car" depart="49.20" departLane="best" departPos="free" departSpeed="max">
        <route edges="237427640#1 237427643#0 -417109206 -1107630021 -1389397840 -417109203 -417109184 -417109170 -417109193 417109215#0 417109215#1 417109177#0 732311660 417292856 417292872 518175685 417292836#0 -6327902#2 -6327902#1 -6327902#0 6336233#5 6336235#1 6336235#2 6330574#0 6377119 -6336235#3"/>
    </vehicle>
    <vehicle id="train_0p6_s3_car_85" type="car" depart="51.00" departLane="best" departPos="free" departSpeed="max">
        <route edges="6352824#3 6352824#4 6352824#5 6352824#6 6352824#7 6352824#8 6352824#9 6352824#10 417292872 518175685 417292836#0 39158025#1 39158025#2 39158025#3 417292858#0 417292915#1 417292915#2 58534062#1 58534062#2 417292923#1 -82362328#5 -82362328#4 -82362328#3 -691374189 839114764 417110670#2 417110670#3 417110670#4"/>
    </vehicle>
    <vehicle id="train_0p6_s3_car_86" type="car" depart="51.60" departLane="best" departPos="free" departSpeed="max">
        <route edges="6352824#2 6352824#3 6352824#4 6352824#5 6352824#6 6352824#7 6352824#8 6352824#9 6352824#10 417292872 518175685 417292836#0 39158025#1 39158025#2 39158025#3 417292858#0 417292915#1 417292915#2 -6335137#1 -6335137#0 6388594#2 -6388594#2"/>
    </vehicle>
    <vehicle id="train_0p6_s3_car_87" type="car" depart="52.20" departLane="best" departPos="free" departSpeed="max">
        <route edges="-500727805 -6361345#0 -1385403723#1 -1385403723#0 -417109184 -417109170 -417109193 417109215#0 417109215#1 417109177#0 732311660 417292856 -6352824#10 -6352824#9 -6352824#8 -6352824#7 -6373221#0"/>
    </vehicle>
    <vehicle id="train_0p6_s3_car_89" type="car" depart="53.40" departLane="best" departPos="free" departSpeed="max">
        <route edges="-6388025#1 6346603#0 6346603#1 6336233#1 6336233#2 6336233#3 6327902#0 6327902#1 6327902#2 6327902#8 6327902#9 1385435442 1385414077 743199094#0 743199094#1 -743199093#7 -743199093#6 -743199093#5 -743199093#2"/>
    </vehicle>
    <vehicle id="train_0p6_s3_car_90" type="car" depart="54.00" departLane="best" departPos="free" departSpeed="max">
        <route edges="-725202076#2 -725202076#1 6406203#1 6406203#2 6406203#3 6406203#4 6406203#5 6406203#6 -725202073#3 -725202073#2 -725202073#1 -725202073#0 -725202074#4 -725202074#3"/>
    </vehicle>
    <vehicle id="train_0p6_s3_car_91" type="car" depart="54.60" departLane="best" departPos="free" departSpeed="max">
        <route edges="6395744 1125518046#3 1125518046#4 1125518046#5 -417712041 -417712050 -1384102708 -37436237#2 -37436237#1 -37436237#0 -417099871 -417099885#11 -417099885#10 -417099885#9 -417099885#8 -417099885#7 -417099885#5 -417099885#4 -417099885#3 -417099885#2 -417099885#1 -417099885#0 -1365136392 154200665 417109211#0 732311662#1 732311662#2 732311662#3 417109194 6330783#1 6330783#3 6330783#4 6330783#5 6330783#6 6330783#8 -6330783#8"/>
    </vehicle>
    <vehicle id="train_0p6_s3_car_92" type="car" depart="55.20" departLane="best" departPos="free" departSpeed="max">
        <route edges="-1107630019#4 -1107630019#3 -1107630019#2 -1107630019#1 -417109209#1 -417109209#0 -119466143 -1107630020 -119466342#3 -119466342#2 -119466342#1 -119466342#0 -417109221#7 -417109221#6 -417109221#5 -417109221#4 -417109221#3 -417109221#2 -417109221#1 -417109221#0 -417109192 -417109200 -417109196 -417109174 -417109206 -1107630021 -1389397840 -417109203 -417109184 -417109170 -417109193 417109215#0 417109215#1 417109177#0 417101890#1 417101890#2 417109117 417109147#0 417109147#1 417109127 417109137 417101777 417101776#1 417101870#0 -725202076#5 -725202076#4 -725202076#3 -725202076#2 -725202076#1 6406203#1 6406203#2 6406203#3 6406203#4"/>
    </vehicle>
    <vehicle id="train_0p6_s3_car_93" type="car" depart="55.80" departLane="best" departPos="free" departSpeed="max">
        <route edges="6383121#0 844708971#5 6322077 1385457143#0 1385457143#1 1385457143#3 1385457143#4 1385457143#5 82362328#0 82362328#1 82362328#2"/>
    </vehicle>
    <vehicle id="train_0p6_s3_car_94" type="car" depart="56.40" departLane="best" departPos="free" departSpeed="max">
        <route edges="-756882987 -6383121#2 -6383121#1 -6383121#0 6335137#12 6335137#13 1385457143#0 1385457143#1 1385457143#3 1385457143#4 1385457143#5 1385457144#0 1385457144#1 6393295#1 -1341691756#1 -1341691756#0 -30915802#3 -30915802#2 -30915802#1 -30915802#0 -417110699#1 1107630019#1 1107630019#2 1107630019#3 1107630019#4 6407199#13 6407199#14 6407199#15"/>
    </vehicle>