<?xml version="1.0" encoding="UTF-8"?>

<!-- generated on 2026-05-24 16:38:01.242870 by Eclipse SUMO randomTrips.py v0.0.0
<configuration>
    <net-file value="/Users/keshav/Downloads/sumo_traffic_project/new_map.net.xml"/>
    <route-file value="/Users/keshav/Downloads/sumo_traffic_project/background_train_0p6_seed1.rou.xml"/>
    <prefix value="train_0p6_s1_car_"/>
    <trip-attributes value="type=&quot;car&quot; departLane=&quot;best&quot; departPos=&quot;free&quot; departSpeed=&quot;max&quot;"/>
    <seed value="1"/>
    <validate value="False"/>
    <end value="7200.0"/>
    <period value="0.6"/>
</configuration>
-->

<!-- generated on 2026-05-24T16:38:00.102579-08:00 by Eclipse SUMO duarouter 1.26.0
<duarouterConfiguration xmlns:xsi="http://www.w3.org/2001/XMLSchema-instance" xsi:noNamespaceSchemaLocation="http://sumo.dlr.de/xsd/duarouterConfiguration.xsd">

    <input>
        <net-file value="/Users/keshav/Downloads/sumo_traffic_project/new_map.net.xml"/>
        <route-files value="trips.trips.xml"/>
    </input>

    <output>
        <output-file value="/Users/keshav/Downloads/sumo_traffic_project/background_train_0p6_seed1.rou.xml"/>
        <alternatives-output value="NUL"/>
    </output>

    <time>
        <begin value="0.0"/>
        <end value="7200.0"/>
    </time>

    <report>
        <no-warnings value="true"/>
        <ignore-errors value="true"/>
        <no-step-log value="true"/>
    </report>

</duarouterConfiguration>
-->

<routes xmlns:xsi="http://www.w3.org/2001/XMLSchema-instance" xsi:noNamespaceSchemaLocation="http://sumo.dlr.de/xsd/routes_file.xsd">
    <vType id="car"
           accel="2.6"
           decel="4.5"
           emergencyDecel="9.0"
           maxSpeed="13.9"
           sigma="0.5"
           lcCooperative="1.0"
           lcStrategic="1.0"
           lcSpeedGain="1.0"
           jmIgnoreKeepClearTime="-1"
           jmDriveAfterYellowTime="-1"
           jmDriveAfterRedTime="-1"/>

    <vehicle id="train_0p6_s1_car_0" type="car" depart="0.00" departLane="best" departPos="free" departSpeed="max">
        <route edges="-625469005 625469005 625469004#0 732311661#2 417109218 154200665 417109211#0 732311660 417292856 417292872 518175685 417292836#0 -6327902#2 -6327902#1 -6327902#0 6336233#5 6335430#0 6335430#1 6335430#2 -6339261#2 -6339261#1 -6339261#0 6376677#4"/>
    </vehicle>
    <vehicle id="train_0p6_s1_car_1" type="car" depart="0.60" departLane="best" departPos="free" departSpeed="max">
        <route edges="6342850 221422255#2 221422255#3 221422255#4 6363343#1 -1125518055#1 -1125518055#0 -417712041 -417712050 -1384102708 -37436237#2 -37436237#1 -37436237#0 -417099871 -417099885#11 -417099885#10 -417099885#9 -417099885#8 -417099885#7 -417099885#5 -417099885#4 -417099885#3 -417099885#2 -417099885#1 -417099885#0 -1365136392 154200665 417109211#0 732311660 417292856 -6352824#10 -6352824#9 -6352824#8 -6352824#7 -6352824#6 -6352824#5 -6352824#4 -6352824#3 -6352824#2 -6352824#1"/>
    </vehicle>
    <vehicle id="train_0p6_s1_car_5" type="car" depart="3.00" departLane="best" departPos="free" departSpeed="max">
        <route edges="6369540#1 -6369540#1 -6369540#0 -6327902#9 -6327902#8 39158025#1 39158025#2 39158025#3 417292858#0 417292915#1 417292915#2 6335137#7 6364012#0 6364012#1 -844708971#1"/>
    </vehicle>
    <vehicle id="train_0p6_s1_car_8" type="car" depart="4.80" departLane="best" departPos="free" departSpeed="max">
        <route edges="-6344437#5 -6344437#4 -6344437#3 -6344437#2 -6344437#1 -6347924#5 -6347924#4 -6369876#3 -6369876#2 6352738#0 -6332221#3 -6332221#2 -6332221#1 -6332221#0 -6344516#2 -6344516#1 -6344516#0 1125168399#0 6381688#0 6406355"/>
    </vehicle>
    <vehicle id="train_0p6_s1_car_10" type="car" depart="6.00" departLane="best" departPos="free" departSpeed="max">
        <route edges="-1341691756#0 -30915802#3 30915802#3 1341691756#0 1341691756#1 -6393295#1 -6393295#0 -1385457144#0 -1385457143#5 -1385457143#4 -1385457143#3 -1385457143#1 -1385457143#0 -6322077 844708974#1 844708973#1 28948303#6"/>
    </vehicle>
    <vehicle id="train_0p6_s1_car_12" type="car" depart="7.20" departLane="best" departPos="free" departSpeed="max">
        <route edges="-6341506#1 6341506#1 -6336214#1 -6336214#0 -417099885#5 -417099885#4 -417099885#3 -417099885#2 -417099885#1 -417099885#0 -1365136392 154200665 417109211#0 732311660 417292856 417292872 518175685 417292836#0 1417060922#1 -743199094#5"/>
    </vehicle>
    <vehicle id="train_0p6_s1_car_15" type="car" depart="9.00" departLane="best" departPos="free" departSpeed="max">
        <route edges="-6345286#1 6330783#9 6330783#10 1383420583#1 1383420583#2 -6393379#4 -6393379#3 -6393379#2 417101776#1 417101870#0 -725202076#5 -725202076#4 -725202076#3 -725202076#2 -725202076#1 -725202076#0 -725202075#4 -725202075#3 -725202075#2 -725202075#0 -6346214#9 -6346214#8 -6346214#7 -6346214#6"/>
    </vehicle>
    <vehicle id="train_0p6_s1_car_18" type="car" depart="10.80" departLane="best" departPos="free" departSpeed="max">
        <route edges="6369876#0 -6335775#1 -319667116#2 -319667116#0 -1417272589#2 -1417272589#1 -1417272589#0 -518183581#0 -518183326#1 -242562183 417095582 242562187#0 242562187#1 417095584#1 417095584#2 417095584#3 417095584#4 417095586#0 359194818#0 359194818#1"/>
    </vehicle>
    <vehicle id="train_0p6_s1_car_19" type="car" depart="11.40" departLane="best" departPos="free" departSpeed="max">
        <route edges="417109252 417292908#0 417292908#1 417292908#2 417292908#3 58533716#0 58533716#1 417292893#1 417292893#2 475725674 424154144#0 424154144#1 1030355059 39158024#0 39158024#1 39158024#2 39158024#3 417292843#0 1417060922#1 417109152 417109132 39158023#0 732311661#1 732311661#2 417109218 1365136392 417099885#0 417099885#1 417099885#2 417099885#3 417099885#4 417099885#5 6336214#0 6336214#1 -6336214#1 -6336214#0"/>
    </vehicle>
    <vehicle id="train_0p6_s1_car_20" type="car" depart="12.00" departLane="best" departPos="free" departSpeed="max">
        <route edges="844708971#4 -6383121#0 6335137#12 6335137#13 1385457143#0 1385457143#1 1385457143#3 1385457143#4 1385457143#5 1385457144#0 1385457144#1 6393295#1 -1341691756#1 -1341691756#0 -30915802#3 -30915802#2 -30915802#1 -30915802#0 -417110699#1 -417109209#1 -417109209#0 -119466143 -1107630020 -119466342#3 -119466342#2 -119466342#1 -119466342#0 -417109221#7 -417109221#6 -417109221#5 -417109221#4 -417109221#3 -417109221#2 -417109221#1 -417109221#0 -417109192 -417109200 -417109196 -417109174 -417109206 -1107630021 -1389397840 -417109203 -417109184 -417109170 -417109193 417109215#0 417109215#1 417109177#0 732311661#1 732311661#2 417109218 6377773#3 6377773#4 6377773#5 6377773#6 6377773#7"/>
    </vehicle>
    <vehicle id="train_0p6_s1_car_21" type="car" depart="12.60" departLane="best" departPos="free" departSpeed="max">
        <route edges="-417109221#7 -417109221#6 -417109221#5 -417109221#4 -417109221#3 -417109221#2 -417109221#1 -417109221#0 -417109192 -417109200 -417109196 -417109174 -417109206 -1107630021 -1389397840 -417109203 -417109184 -417109170 -417109193 -6387364#1 -6387364#0"/>
    </vehicle>
    <vehicle id="train_0p6_s1_car_22" type="car" depart="13.20" departLane="best" departPos="free" departSpeed="max">
        <route edges="6334595 6352824#2 6352824#3 6352824#4 6352824#5 6352824#6 6352824#7 6352824#8 6352824#9 6352824#10 417292872 518175685 417292836#0 1417060922#1 417109152 417109132 39158023#0 417101890#1 417101890#2 417109117 417109147#0 417109147#1 417109127 417109137 417101777 417101776#1 417101870#0 -725202076#5 -725202076#4 -725202076#3 -725202076#2 -725202076#1 -725202076#0 -725202075#4 -725202075#3 -725202075#2 -725202075#0 -6346214#9 -6346214#8 6333164#1"/>
    </vehicle>
    <vehicle id="train_0p6_s1_car_23" type="car" depart="13.80" departLane="best" departPos="free" departSpeed="max">
        <route edges="6402225#0 6402225#1 6402225#2 -37436237#0 -417099871 -417099885#11 -417099885#10 -417099885#9 -417099885#8 -417099885#7 -417099885#5 -417099885#4 -417099885#3 -417099885#2 -417099885#1 -417099885#0 -1365136392 154200665 417109211#0 732311660 417292856 417292872 518175685 417292836#0 1417060922#1 -743199094#5"/>
    </vehicle>
    <vehicle id="train_0p6_s1_car_24" type="car" depart="14.40" departLane="best" departPos="free" departSpeed="max">
        <route edges="6366623#3 -6390192#1 6332826 -6367505 6340935#2 6340935#3 518183326#1 518183581#0 518183581#1"/>
    </vehicle>
    <vehicle id="train_0p6_s1_car_25" type="car" depart="15.00" departLane="best" departPos="free" departSpeed="max">
        <route edges="-6376677#1 6336233#1 6336233#2 6336233#3 6327902#0 6327902#1 6327902#2 1417060922#1 417109152 417109132 39158023#0 732311661#1 732311661#2 417109218 1365136392 417099885#0 417099885#1 417099885#2 417099885#3 417099885#4 417099885#5 417099885#7 417099885#8 417099885#9 417099885#10 417099885#11 417099871 37436237#0 37436237#1 37436237#2 1384102708 417712050 417099875 417099863 417099854 125343972#1 1125518057 1477882846 160251184#1 417099849 184856734 417099872"/>
    </vehicle>
    <vehicle id="train_0p6_s1_car_26" type="car" depart="15.60" departLane="best" departPos="free" departSpeed="max">
        <route edges="6385767#1 6385767#2 6337954#0 417101890#2 417109117 417109156 417109161#0 732311660 417292856 417292872 518175685 417292836#0 -6327902#2 -6327902#1 -6327902#0 -6336233#3 -6336233#2 -6336233#1 6376677#1 6376677#2"/>
    </vehicle>
    <vehicle id="train_0p6_s1_car_29" type="car" depart="17.40" departLane="best" departPos="free" departSpeed="max">
        <route edges="6348243 417099872 160251185 -417712046 -417099863 -417712041 -417712050 -1384102708 -37436237#2 -37436237#1 -37436237#0 -417099871 -417099885#11 -417099885#10 -417099885#9 -417099885#8 -417099885#7 -417099885#5 -417099885#4 -417099885#3 -417099885#2 -417099885#1 -417099885#0 -1365136392 6377773#3 6377773#4 6377773#5 6377773#6 6377773#7 6377773#8 6377773#9 6377773#10 6377773#11 6377773#12 6377773#13 417109137 417101777 417101776#1 417101870#0 -725202076#5 -725202076#4 -725202076#3"/>
    </vehicle>
    <vehicle id="train_0p6_s1_car_30" type="car" depart="18.00" departLane="best" departPos="free" departSpeed="max">
        <route edges="-6333872#0 6332826 -6367505 6340935#2 6340935#3 518183326#1 518183581#0 518183581#1 1417272589#1 1417272589#2 1417272589#3 319667116#2 319667116#3"/>
    </vehicle>
    <vehicle id="train_0p6_s1_car_31" type="car" depart="18.60" departLane="best" departPos="free" departSpeed="max">
        <route edges="6330783#4 6330783#5 -6330783#5 -6330783#4 -6330783#3 -6330783#1 417109215#0 417109215#1 417109177#0 732311660 417292856 417292872 518175685 417292836#0 39158025#1 39158025#2 39158025#3 417292858#0 417292915#1 417292915#2 58534062#1 58534062#2"/>
    </vehicle>
    <vehicle id="train_0p6_s1_car_32" type="car" depart="19.20" departLane="best" departPos="free" departSpeed="max">
        <route edges="-6396921#2 -6396921#1 6376677#0 6336233#1 6336233#2 6336233#3 6327902#0 6327902#1 6327902#2 1417060922#1 417109152 417109132 39158023#0 732311661#1 732311661#2 417109218 1365136392 417099885#0 417099885#1 417099885#2 417099885#3 417099885#4 417099885#5 417099885#7 417099885#8 417099885#9 417099885#10 417099885#11 417099871 37436237#0 37436237#1 37436237#2 1384102708 417712050 417099875 -1125518046#5 -1125518046#4 -1125518046#3 -1125518046#2 -1125518046#1 -6329264 -1013410640 1013410640"/>
    </vehicle>
    <vehicle id="train_0p6_s1_car_33" type="car" depart="19.80" departLane="best" departPos="free" departSpeed="max">
        <route edges="1462135364#1 1462135364#2 6336411#0 6336411#1 -82485574 -6330199 6340646#1 -6335430#3 -6335430#2 -6335430#1 -6335430#0 -6336233#5 6327902#0 6327902#1 6327902#2 1417060922#1 417109152 417109132 39158023#0 732311661#1 732311661#2 417109218 1365136392 417099885#0 417099885#1 417099885#2 417099885#3 417099885#4 417099885#5 417099885#7 417099885#8 417099885#9 417099885#10 417099885#11 417099871 37436237#0 37436237#1 37436237#2 1384102708 417712050 417099875 417099863 417099854 125343972#1 6347235 1477882845 242565446 1091171443 417099771#1 417104919#1 417104919#2 417104919#3 417104919#4 417104919#5 417104919#6 417104861#0 417104861#1 417104907#0 417104907#1 417104907#2 417104888#0 6346214#2 6346214#3 6346214#4 6346214#5 6346214#6 6346214#7"/>
    </vehicle>
    <vehicle id="train_0p6_s1_car_34" type="car" depart="20.40" departLane="best" departPos="free" departSpeed="max">
        <route edges="160251184#1 417099849 184856734 417099872 160251185 -1125518056 -6377976#4 -6377976#3 -6377976#2 -6377976#1 -6377973#2 -6377973#1 -6407074"/>
    </vehicle>
    <vehicle id="train_0p6_s1_car_35" type="car" depart="21.00" departLane="best" departPos="free" departSpeed="max">
        <route edges="1385401545#1 -6397696 -1385401545#0"/>
    </vehicle>
    <vehicle id="train_0p6_s1_car_37" type="car" depart="22.20" departLane="best" departPos="free" departSpeed="max">
        <route edges="747497971 -747497971 -417109206 -1107630021 -1389397840 -417109203 -417109184 -417109170 -417109193 417109215#0 417109215#1 417109177#0 732311661#1 732311661#2 417109218 1365136392 417099885#0 417099885#1 417099885#2 417099885#3 417099885#4 417099885#5 417099885#7"/>
    </vehicle>
    <vehicle id="train_0p6_s1_car_38" type="car" depart="22.80" departLane="best" departPos="free" departSpeed="max">
        <route edges="-6402791 -28948302#2 -28948302#1 -28948302#0 -6324437#1 417292893#2 475725674 424154144#0 424154144#1 1030355059 39158024#0 39158024#1 39158024#2 39158024#3 417292843#0 1417060922#1 417109152 417109132 39158023#0 732311661#1 732311661#2 417109218 1365136392 417099885#0 417099885#1 417099885#2 417099885#3 417099885#4 417099885#5 417099885#7 417099885#8 417099885#9 417099885#10 417099885#11 417099871 37436237#0 37436237#1 37436237#2 1384102708 417712050 417099875 417099863 417099854 125343972#1 6347235 1477882845 242565446 1091171443 417099771#1 -6334288#4 -6334288#2"/>
    </vehicle>
    <vehicle id="train_0p6_s1_car_41" type="car" depart="24.60" departLane="best" departPos="free" departSpeed="max">
        <route edges="6377773#1 6377773#3 6377773#4 6377773#5 6377773#6 6377773#7 6377773#8 6377773#9 6377773#10 6377773#11 6377773#12 6377773#13 417109137 417101777 417101776#1 417101870#0 -725202076#5 -725202076#4 -725202076#3 -725202076#2 -725202076#1 -725202076#0 -725202075#4 -725202075#3 -725202075#2 -725202075#0 -6346214#9"/>
    </vehicle>
    <vehicle id="train_0p6_s1_car_42" type="car" depart="25.20" departLane="best" departPos="free" departSpeed="max">
        <route edges="154200665 417109211#0 732311662#1 732311662#2 732311662#3 417109194 417109193 417109170 417109184 417109203 119466373 1107630021 417109206 417109174 417109196 417109200 417109192 417109221#0 417109221#1 417109221#2 417109221#3 417109221#4 417109221#5 417109221#6 417109221#7 119466342#0 119466342#1 119466342#2 119466342#3 1107630020 119466143 417109209#0 417109209#1 1107630019#1 1107630019#2 1107630019#3 1107630019#4 -6407199#12 -6407199#11 -6407199#10 -6407199#9 -6407199#7 -6407199#6 -6407199#5 -6407199#4 -6407199#3 -6407199#2 -6407199#1 -6407199#0 6407199#0 6407199#1 6407199#2 6407199#3 6407199#4 6407199#5"/>
    </vehicle>
    <vehicle id="train_0p6_s1_car_43" type="car" depart="25.80" departLane="best" departPos="free" departSpeed="max">
        <route edges="417095586#4 417095586#5 -417095586#5 -417095586#4 -417095586#3 -417095586#1 -417095586#0 -417095584#4 -417095584#3 -417095584#2 -417095584#1 393908330 417954120 242562183 -6340935#3 -6340935#2 417954118 417954116 83588154 417099665 -235414566 -1125517713 319667116#14 1125517937#0 1125517937#1 1125517937#3 1125517937#4 1125517937#5 1125517937#6 1125517937#7 1125518021#0"/>
    </vehicle>
    <vehicle id="train_0p6_s1_car_45" type="car" depart="27.00" departLane="best" departPos="free" departSpeed="max">
        <route edges="6407767#1 6362169#1 6362169#3 6362169#4 -417099871 -417099885#11 -417099885#10 -417099885#9 -417099885#8 -417099885#7 -417099885#5 -417099885#4 -417099885#3 -417099885#2 -417099885#1 -417099885#0 -1365136392 154200665 417109211#0 732311662#1 732311662#2 732311662#3 417109194 417109193 417109170 417109184 417109203 119466373 1107630021 417109206 237427644#1 237427643#0 -417109206 -1107630021"/>
    </vehicle>
    <vehicle id="train_0p6_s1_car_46" type="car" depart="27.60" departLane="best" departPos="free" departSpeed="max">
        <route edges="6346823#0 6363296#1"/>
    </vehicle>
    <vehicle id="train_0p6_s1_car_48" type="car" depart="28.80" departLane="best" departPos="free" departSpeed="max">
        <route edges="6352824#7 6352824#8 6352824#9 6352824#10 417292872 518175685 417292836#0 1417060922#1 417109152 417109132 39158023#0 732311661#1 732311661#2 417109218 1365136392 417099885#0 417099885#1 417099885#2 417099885#3 417099885#4 417099885#5 417099885#7 417099885#8 417099885#9 417099885#10 417099885#11 417099871 37436237#0 37436237#1 37436237#2 1384102708 417712050 417099875 1125518055#0 1125518055#1 -6363343#1 -221422255#4 -221422255#3 221422255#3"/>
    </vehicle>
    <vehicle id="train_0p6_s1_car_51" type="car" depart="30.60" departLane="best" departPos="free" departSpeed="max">
        <route edges="39158025#2 39158025#3 417292858#0 -6350903#1 6337807#0 6337807#1 -6336411#2 -82485574 -6376677#5 -6376677#4 -6376677#3 -6376677#2 -6376677#1 -6376677#0 6396921#1 -6352239#1 -6339706"/>
    </vehicle>
    <vehicle id="train_0p6_s1_car_56" type="car" depart="33.60" departLane="best" departPos="free" departSpeed="max">
        <route edges="-1383420583#2 -1383420583#1 1383420583#1 1383420583#2 -6393379#4 -6393379#3 -6393379#2 417101776#1 417101870#0 -725202076#5 -725202076#4 -725202076#3 -725202076#2 -725202076#1 -725202076#0 -725202075#4 -725202075#3 -725202075#2 -725202075#0 -6346214#9 -6346214#8 -6346214#7 -6346214#6 -6346214#5 -6346214#4"/>
    </vehicle>
    <vehicle id="train_0p6_s1_car_57" type="car" depart="34.20" departLane="best" departPos="free" departSpeed="max">
        <route edges="-6335137#10 -6335137#9 -6335137#8 -6335137#7 417292893#1 417292893#2 475725674 424154144#0 424154144#1 1030355059 39158024#0 39158024#1 39158024#2 39158024#3 417292843#0 1417060922#1 417109152 417109132 39158023#0 732311661#1 732311661#2 417109218 1365136392 417099885#0 417099885#1 417099885#2 417099885#3 417099885#4 417099885#5 417099885#7 417099885#8 417099885#9 417099885#10 417099885#11 417099871 37436237#0 37436237#1 37436237#2 1384102708 417712050 417099875 417099863 417099854 125343972#1 6347235 1477882845 242565446 1091171443 417099771#1 417099785#1 417099825#0"/>
    </vehicle>
    <vehicle id="train_0p6_s1_car_59" type="car" depart="35.40" departLane="best" departPos="free" departSpeed="max">
        <route edges="6348243 417099872 160251185 -417712046 -417099863 -417712041 -417712050 -1384102708 -37436237#2 -37436237#1 -37436237#0 -417099871 -417099885#11 -417099885#10 -417099885#9 -417099885#8 -417099885#7 -417099885#5 -417099885#4 -417099885#3 -417099885#2 -417099885#1 -417099885#0 -1365136392 154200665 417109211#0 732311662#1 732311662#2 732311662#3 417109194 417109193 417109170 417109184 1385403723#0 1385403723#1 6361345#0 6361345#1 6361345#2"/>
    </vehicle>
    <vehicle id="train_0p6_s1_car_61" type="car" depart="36.60" departLane="best" departPos="free" departSpeed="max">
        <route edges="518183581#1 1417272589#1 1417272589#2 1417272589#3 319667116#2 319667116#3 319667116#5 319667116#6 -319667116#6 -319667116#5"/>
    </vehicle>
    <vehicle id="train_0p6_s1_car_63" type="car" depart="37.80" departLane="best" departPos="free" departSpeed="max">
        <route edges="6340646#0 6330199 521790711 6336411#2 -6337807#1 -6337807#0 6350903#1 -6350903#1"/>
    </vehicle>
    <vehicle id="train_0p6_s1_car_64" type="car" depart="38.40" departLane="best" departPos="free" departSpeed="max">
        <route edges="-417099885#8 -417099885#7 -417099885#5 -417099885#4 -417099885#3 -417099885#2 -417099885#1 -417099885#0 -1365136392 154200665 417109211#0 732311662#1 732311662#2 732311662#3 417109194 417109193 417109170 417109184"/>
    </vehicle>
    <vehicle id="train_0p6_s1_car_66" type="car" depart="39.60" departLane="best" departPos="free" departSpeed="max">
        <route edges="-6330783#5 -6330783#4 -6330783#3 -6330783#1 417109193 417109170 417109184 417109203 119466373 1107630021 417109206 237427644#1 237427649#1"/>
    </vehicle>
    <vehicle id="train_0p6_s1_car_68" type="car" depart="40.80" departLane="best" departPos="free" departSpeed="max">
        <route edges="6332221#1 6332221#2 6332221#3 -6352738#0 6369876#2 -1125517722 319667116#5 319667116#6 319667116#8 319667116#9 319667116#10 319667116#12 242562192#1 235414566 417099715 417099641 417099658 417099694 1125517656 1125517657#1"/>
    </vehicle>
    <vehicle id="train_0p6_s1_car_69" type="car" depart="41.40" departLane="best" departPos="free" departSpeed="max">
        <route edges="-6377976#2 -6377976#1 6377976#1 6377976#2 6377976#3 6377976#4 1125518056 125343972#1 6347235 1477882845 242565446 1091171443 417099771#1 417104919#1 417104919#2 417104919#3 417104919#4 417104919#5 417104919#6 417104861#0 417104861#1 122220077#1 122220077#2 122220077#3 122220077#4"/>
    </vehicle>
    <vehicle id="train_0p6_s1_car_71" type="car" depart="42.60" departLane="best" departPos="free" departSpeed="max">
        <route edges="-725202076#4 725202076#4 725202076#5 417101787#1 417101787#2 417101787#3 417101772#0 417101884#0 417101884#1 417101812 417101889 417109111 417109156 417109161#0 732311660 417292856 417292872 518175685 417292836#0 -6327902#2 -6327902#1 -6327902#0 -6336233#3 -6336233#2"/>
    </vehicle>
    <vehicle id="train_0p6_s1_car_74" type="car" depart="44.40" departLane="best" departPos="free" departSpeed="max">
        <route edges="417101890#1 417101890#2 417109117 417109156 417109161#0 732311662#1 732311662#2 732311662#3 417109194 417109193 417109170 417109184 1385403723#0 1385403723#1 6361345#0 6361345#1 6361345#2 6361345#3"/>
    </vehicle>
    <vehicle id="train_0p6_s1_car_75" type="car" depart="45.00" departLane="best" departPos="free" departSpeed="max">
        <route edges="-119466342#2 -119466342#1 -119466342#0 -417109221#7 -417109221#6 -417109221#5 -417109221#4 -417109221#3 -417109221#2 -417109221#1 -417109221#0 -417109192 -417109200 -417109196 -417109174 -417109206 -1107630021 -1389397840 -417109203 -417109184 -417109170 -417109193 417109215#0 417109215#1 417109177#0 732311661#1 732311661#2 417109218 1365136392 417099885#0 417099885#1 417099885#2 417099885#3 417099885#4 417099885#5 417099885#7 417099885#8 417099885#9 417099885#10 417099885#11 417099871 37436237#0 37436237#1 37436237#2 1384102708 417712050 417099875 -1125518046#5 -1125518046#4"/>
    </vehicle>
    <vehicle id="train_0p6_s1_car_76" type="car" depart="45.60" departLane="best" departPos="free" departSpeed="max">
        <route edges="-6327902#1 -6327902#0 -6332812 6332812 6327902#0 6327902#1 6327902#2 39158025#1 39158025#2 39158025#3 417292858#0 417292915#1 417292915#2 6335137#7 6335137#8 6335137#9 6335137#10"/>
    </vehicle>
    <vehicle id="train_0p6_s1_car_77" type="car" depart="46.20" departLane="best" departPos="free" departSpeed="max">
        <route edges="-6330783#6 -6330783#5 -6330783#4 -6330783#3 -6330783#1 417109215#0 417109215#1 417109177#0 417101890#1 417101890#2 417109117 417109147#0 417109147#1 417109127 417109137 417101777 417101776#1 417101870#0 -725202076#5 -6331370#5 -6331370#4 -6331370#2 6331370#2"/>
    </vehicle>
    <vehicle id="train_0p6_s1_car_78" type="car" depart="46.80" departLane="best" departPos="free" departSpeed="max">
        <route edges="625469004#0 732311661#2 417109218 1365136392 417099885#0 417099885#1 417099885#2 417099885#3 417099885#4 417099885#5 417099885#7 417099885#8 417099885#9 417099885#10 417099885#11 417099871 37436237#0 37436237#1 37436237#2 1384102708 417712050 417099875 417099863 417099854 125343972#1 1125518057 1477882846 319199244 417099764 319204819#1"/>
    </vehicle>
    <vehicle id="train_0p6_s1_car_81" type="car" depart="48.60" departLane="best" departPos="free" departSpeed="max">
        <route edges="-6342879#1 -6342879#0 6342879#0 6342879#1 6342879#2 6342879#3 30915802#3 1341691756#0 1341691756#1 -6393295#1 -6393295#0 -1385457144#0 -1385457143#5 -1385457143#4 -1385457143#3 -1385457143#1 -1385457143#0 -6335137#13 -6335137#12 -6335137#11 -6335137#10 -6335137#9 -6335137#8 -6335137#7 417292893#1 417292893#2 475725674 417292889#0 243743797#1 417292827#0 417292855#1"/>
    </vehicle>
    <vehicle id="train_0p6_s1_car_83" type="car" depart="49.80" departLane="best" departPos="free" departSpeed="max">
        <route edges="-6377976#1 6377976#1 6377976#2 6377976#3 6377976#4 1125518056 -417712046 -417099863 -417712041 -417712050 -1384102708 -37436237#2 -37436237#1 -37436237#0 -417099871 -417099885#11 -417099885#10 -417099885#9 -417099885#8 -417099885#7 -417099885#5 -417099885#4 -417099885#3 -417099885#2 -417099885#1 -417099885#0 -1365136392 154200665 417109211#0 732311662#1 732311662#2 732311662#3 417109194 417109215#0"/>
    </vehicle>
    <vehicle id="train_0p6_s1_car_84" type="car" depart="50.40" departLane="best" departPos="free" departSpeed="max">
        <route edges="-216941515 6387370#1 6387370#2 -6367573#1 -6367573#0 6399698#1 -417095586#1 -417095586#0 -417095584#4 -417095584#3 -417095584#2 -417095584#1 1125168400#0 1125168400#1 1125168400#2 1125168400#3 1125168400#4 1125168400#5 1125168400#6 6344516#0 6344516#1 6344516#2 -6375779#3 -6375779#2 -6375779#1"/>
    </vehicle>
    <vehicle id="train_0p6_s1_car_88" type="car" depart="52.80" departLane="best" departPos="free" departSpeed="max">
        <route edges="6337854#0 6337854#1 6402225#1 6402225#2 -37436237#0 -417099871 -417099885#11 -417099885#10 -417099885#9 -417099885#8 -417099885#7 -417099885#5 -417099885#4 -417099885#3 -417099885#2 -417099885#1 -417099885#0 -1365136392 154200665 417109211#0 732311660 417292856 417292872 518175685 417292836#0 6327902#8 6327902#9 743199098#1 743199093#1 -743199093#1"/>
    </vehicle>
    <vehicle id="train_0p6_s1_car_89" type="car" depart="53.40" departLane="best" departPos="free" departSpeed="max">
        <route edges="-6348077#2 -6348077#1 -6332221#1 -6332221#0 -6344516#2 -6344516#1 -6344516#0 1125168399#0 -1125168399#0"/>
    </vehicle>
    <vehicle id="train_0p6_s1_car_91" type="car" depart="54.60" departLane="best" departPos="free" departSpeed="max">
        <route edges="6361345#0 -6361345#0 -1385403723#1 -1385403723#0 -417109184 -417109170 -417109193 417109215#0 417109215#1 417109177#0 417101890#1 417101890#2 417109117 417109147#0 417109147#1 417109127 417109137 417101777 417101776#1 417101870#0 -725202076#5 -725202076#4 -725202076#3 -725202076#2 -725202076#1 -725202076#0 6402235#1 -725202074#2 725202074#2"/>
    </vehicle>
    <vehicle id="train_0p6_s1_car_92" type="car" depart="55.20" departLane="best" departPos="free" departSpeed="max">
        <route edges="39158025#2 39158025#3 417292858#0 1030355060#1 1030355059 39158024#0 39158024#1 39158024#2 39158024#3 417292843#0 1417060922#1 417109152 417109132 39158023#0 732311661#1 732311661#2 417109218 1365136392 417099885#0 417099885#1 417099885#2 417099885#3 417099885#4 417099885#5 6336214#0 6336214#1 -6341506#1 -6341506#0 -6334312#2 -6334312#1"/>
    </vehicle>
    <vehicle id="train_0p6_s1_car_93" type="car" depart="55.80" departLane="best" departPos="free" departSpeed="max">
        <route edges="6377973#1 6377973#2 6377976#1 6377976#2 6377976#3 6377976#4 1125518056 -417712046 -417099863 -417712041 -417712050 -1384102708 -37436237#2 -37436237#1 -37436237#0 -417099871 -417099885#11 -417099885#10 -417099885#9 -417099885#8 -417099885#7 -417099885#5 -417099885#4 -417099885#3 -417099885#2 -417099885#1 -417099885#0 -1365136392 154200665 417109211#0 732311660 417292856 417292872 518175685 417292836#0 6327902#8 6327902#9 743199098#1 743199093#1 743199093#2"/>
    </vehicle>
    <vehicle id="train_0p6_s1_car_97" type="car" depart="58.20" departLane="best" departPos="free" departSpeed="max">
        <route edges="-747497972#4 -747497972#3 -747497971 -417109206 -1107630021 -1389397840 -417109203 -417109184 -417109170 -417109193 417109215#0 417109215#1 417109177#0 732311661#1 732311661#2 417109218 1365136392 417099885#0 417099885#1 417099885#2 417099885#3 417099885#4 417099885#5 417099885#7 417099885#8 417099885#9 -6336575#1"/>
    </vehicle>
    <vehicle id="train_0p6_s1_car_98" type="car" depart="58.80" departLane="best" departPos="free" departSpeed="max">
        <route edges="-417099885#0 -1365136392 154200665 417109211#0 732311660 417292856 417292872 518175685 417292836#0 39158025#1 39158025#2 39158025#3 417292858#0 417292915#1 417292915#2 417292893#1 417292893#2 475725674"/>
    </vehicle>
    <vehicle id="train_0p6_s1_car_99" type="car" depart="59.40" departLane="best" departPos="free" departSpeed="max">
        <route edges="-6373565 6373565 6334288#1 6334288#2 6334288#4 417099785#1 417099825#0 160251184#1 417099849 184856734 417099872 160251185 -417712046 -417099863 -417712041 -417712050 -1384102708 -37436237#2 -37436237#1 -37436237#0 -417099871 -417099885#11 -417099885#10 -417099885#9 -417099885#8 -417099885#7 -417099885#5 -417099885#4 -417099885#3 -417099885#2 -417099885#1 -417099885#0 -1365136392 154200665 417109211#0 732311660 417292856 417292872 518175685 417292836#0 39158025#1 39158025#2 39158025#3 417292858#0 243743797#1 417292827#0 417292880 417292849 6369011 1417292398#2"/>
    </vehicle>
    <vehicle id="train_0p6_s1_car_100" type="car" depart="60.00" departLane="best" departPos="free" departSpeed="max">