<routes>
    <vType id="car"
           accel="2.6"
           decel="4.5"
           emergencyDecel="9.0"
           maxSpeed="13.9"
           sigma="0.5"
           lcCooperative="1.0"
           lcStrategic="1.0"
           lcSpeedGain="1.0"
           jmIgnoreKeepClearTime="-1"
           jmDriveAfterYellowTime="-1"
           jmDriveAfterRedTime="-1"/>
    <flow id="extreme_NB-S_0" type="car" begin="0.0" end="3600.0" period="30.000" from="417109161#0" to="732311660" departLane="best" departPos="free" departSpeed="max"/>
    <flow id="extreme_NB-L_0" type="car" begin="0.0" end="3600.0" period="48.000" from="417109161#0" to="732311662#1" departLane="best" departPos="free" departSpeed="max"/>
    <flow id="extreme_NB-R_0" type="car" begin="0.0" end="3600.0" period="54.000" from="417109161#0" to="417101890#1" departLane="best" departPos="free" departSpeed="max"/>
    <flow id="extreme_NB-R_1" type="car" begin="0.0" end="3600.0" period="54.000" from="417109161#0" to="732311661#1" departLane="best" departPos="free" departSpeed="max"/>
    <flow id="extreme_SB-S_0" type="car" begin="0.0" end="3600.0" period="30.000" from="39158023#0" to="417101890#1" departLane="best" departPos="free" departSpeed="max"/>
    <flow id="extreme_SB-L_0" type="car" begin="0.0" end="3600.0" period="48.000" from="39158023#0" to="732311661#1" departLane="best" departPos="free" departSpeed="max"/>
    <flow id="extreme_SB-R_0" type="car" begin="0.0" end="3600.0" period="54.000" from="39158023#0" to="732311660" departLane="best" departPos="free" departSpeed="max"/>
    <flow id="extreme_SB-R_1" type="car" begin="0.0" end="3600.0" period="54.000" from="39158023#0" to="732311662#1" departLane="best" departPos="free" departSpeed="max"/>
    <flow id="extreme_EB-S_0" type="car" begin="0.0" end="3600.0" period="0.250" from="417109177#0" to="732311661#1" departLane="best" departPos="free" departSpeed="max"/>
    <flow id="extreme_EB-L_0" type="car" begin="0.0" end="3600.0" period="0.400" from="417109177#0" to="732311660" departLane="best" departPos="free" departSpeed="max"/>
    <flow id="extreme_EB-R_0" type="car" begin="0.0" end="3600.0" period="0.450" from="417109177#0" to="417101890#1" departLane="best" departPos="free" departSpeed="max"/>
    <flow id="extreme_EB-R_1" type="car" begin="0.0" end="3600.0" period="0.450" from="417109177#0" to="732311662#1" departLane="best" departPos="free" departSpeed="max"/>
    <flow id="extreme_WB-S_0" type="car" begin="0.0" end="3600.0" period="30.000" from="417109211#0" to="732311662#1" departLane="best" departPos="free" departSpeed="max"/>
    <flow id="extreme_WB-L_0" type="car" begin="0.0" end="3600.0" period="48.000" from="417109211#0" to="417101890#1" departLane="best" departPos="free" departSpeed="max"/>
    <flow id="extreme_WB-L_1" type="car" begin="0.0" end="3600.0" period="48.000" from="417109211#0" to="732311661#1" departLane="best" departPos="free" departSpeed="max"/>
    <flow id="extreme_WB-R_0" type="car" begin="0.0" end="3600.0" period="54.000" from="417109211#0" to="732311660" departLane="best" departPos="free" departSpeed="max"/>
</routes>
