<routes>
    <vType id="global_car"
           vClass="passenger"
           guiShape="passenger"
           length="4.8"
           width="1.8"
           minGap="2.5"
           accel="2.6"
           decel="4.5"
           emergencyDecel="9.0"
           maxSpeed="13.9"
           sigma="0.5"
           tau="1.0"
           lcCooperative="1.0"
           lcStrategic="1.0"
           lcSpeedGain="1.0"
           jmIgnoreKeepClearTime="-1"
           jmDriveAfterYellowTime="-1"
           jmDriveAfterRedTime="-1"/>
    <route id="route_template_0" edges="-417095586#6 6371203 6387370#4 6355734"/>
    <route id="route_template_1" edges="6375779#2 6375779#3 6332221#0 6332221#1 6332221#2 6332221#3 -6352738#0 6369876#2 6369876#3 6369876#4 6369876#5 6330053#5 6330053#6"/>
    <route id="route_template_2" edges="6345286#1 -6345286#1 -6330783#8 -6330783#6 6345433#1 -6345433#1"/>
    <route id="route_template_3" edges="6344516#0 6344516#1 6344516#2 6332221#0 6332221#1 6332221#2 6332221#3 6352738#2 6352738#3"/>
    <route id="route_template_4" edges="-6354455#2 417109147#0 417109147#1 417109127 417109137 417101777 417101776#1 417101870#0 -725202076#5 -725202076#4 -725202076#3 -725202076#2 -6347072#1 -6369691"/>
    <route id="route_template_5" edges="-6398656#0 6398656#0 -6402363#4 -6402363#3 -6402363#2 -6402363#1 -6402363#0 -6378652#0 1417292398#0"/>
    <route id="route_template_6" edges="-6388594#1 6388594#1 6335137#0 6335137#1 58534062#1 58534062#2 417292923#1 417292908#0"/>
    <route id="route_template_7" edges="-417712041 -417712050 -1384102708 -37436237#2 -1389412805 6396787#1 -6396787#1"/>
    <route id="route_template_8" edges="6330783#9 6330783#10 1383420583#1 1383420583#2 -6393379#4 -6393379#3 -6393379#2 417101776#1 417101870#0 -725202076#5 -725202076#4 -725202076#3 -725202076#2 -725202076#1 -725202076#0 -725202075#4 -725202075#3 -725202075#2 -725202075#0 725202075#0 725202075#2 725202075#3"/>
    <route id="route_template_9" edges="747497972#1 -747497972#1"/>
    <route id="route_template_10" edges="-6335775#3 -6332221#2 6348077#1"/>
    <route id="route_template_11" edges="6348077#1 -6348077#1 6332221#2 6332221#3 -6352738#0 -6369876#1"/>
    <route id="route_template_12" edges="6332221#3 -6352738#0 6369876#2 -1125517722 -319667116#3"/>
    <route id="route_template_13" edges="-6406098 6406098 6361345#3 1385401545#0 1385401545#1 1383420583#1 1383420583#2 -6393379#4 -6393379#3 -6393379#2 417101776#1 417101870#0 -725202076#5 -725202076#4 -725202076#3 -725202076#2 -725202076#1 -725202076#0 -725202075#4 -725202075#3"/>
    <route id="route_template_14" edges="-6348077#0 6348077#0 -6332221#1 6394156#4 6394156#5"/>
    <route id="route_template_15" edges="-6388199#2 6388199#2 -6371081#0 -6329960#1 -6329960#0"/>
    <route id="route_template_16" edges="6361345#1 6361345#2 6361345#3 1385401545#0 1385401545#1 1383420583#1 1383420583#2 -6393379#4 -6393379#3 -6393379#2 417101776#1 417101870#0 -725202076#5 -725202076#4 -725202076#3 -725202076#2 -6347072#1 -6369691"/>
    <route id="route_template_17" edges="-6334779 6334779 -6331370#2 -6331370#1 -6331370#0"/>
    <route id="route_template_18" edges="-6402363#1 6402363#1 -6363296#3 417292855#1 1072970839"/>
    <route id="route_template_19" edges="417095584#4 417095586#0 417095586#1 417095586#3 -6368422 -6367573#0"/>
    <route id="route_template_20" edges="417095566 417095571 -417095584#4 -417095584#3 359194846#0 -359194818#1 -359194828#0"/>
    <route id="route_template_21" edges="-6359975 -6397701#0 6397701#0"/>
    <route id="route_template_22" edges="-6393379#4 -6393379#3 -6393379#2 417101776#1 417101870#0 -725202076#5 -725202076#4 -725202076#3 6394564 -6394564"/>
    <route id="route_template_23" edges="-6342607#1 -6342607#0 242565997#3 -242565997#3"/>
    <route id="route_template_24" edges="417109211#0 732311660 417292856 417292872 518175685 417292836#0 39158025#1 39158025#2 39158025#3 417292858#0 -6350903#1 -6346825 -6346823#2 -6346823#1"/>
    <route id="route_template_25" edges="6362658#1 -6399698#0 6367573#1 6387370#3 6387370#4 6387370#5"/>
    <route id="route_template_26" edges="6342607#3 -6344437#7 156504067#8 156504067#9"/>
    <route id="route_template_27" edges="417101870#0 -725202076#5 -725202076#4 -725202076#3 -725202076#2 -6347072#1 -6369691 6369691"/>
    <route id="route_template_28" edges="6330783#10 1383420583#1 1383420583#2 -6393379#4 -6393379#3 -6393379#2 417101776#1 417101870#0 -725202076#5 -6331370#5 -6331370#4 -6331370#2 -6331370#1"/>
    <route id="route_template_29" edges="6393379#5 -6393379#5 -6393379#4 -6393379#3 -6393379#2 417101776#1 417101870#0"/>
    <route id="route_template_30" edges="-6327105#5 -6369876#4 -6369876#3 -6369876#2 6352738#0 -6332221#3 -6332221#2 -6332221#1 -6332221#0 -6344516#2 -6344516#1 -6344516#0 6388184#0 6400493#0"/>
    <route id="route_template_31" edges="-371516999 -6394156#6 -6352738#5 -6352738#4 -6352738#3 -6352738#2 -6352738#0 6369876#2 6369876#3 6347924#4 6347924#5 6344437#1 -6327105#6 -6327105#5"/>
    <route id="route_template_32" edges="6406355 -6406355 -6381688#0 -1125168399#0 6344516#0 6344516#1 6344516#2 6332221#0 6332221#1 -6348077#0 6348077#0"/>
    <route id="route_template_33" edges="6334595 -6352824#1 6352824#1"/>
    <route id="route_template_34" edges="-1365136392 154200665 417109211#0 417101890#1 417101890#2 417109117 417109147#0"/>
    <route id="route_template_35" edges="359194846#0 359194846#1 -359194846#1 -359194846#0 -417095584#2 -417095584#1 393908330 417954120"/>
    <route id="route_template_36" edges="6321550#2 -6321550#2 -6321550#1"/>
    <route id="route_template_37" edges="-6346823#0 6346823#0 6363296#1 417292880 417292849 655105393 1061011588"/>
    <route id="route_template_38" edges="-6387370#3 -6387370#2"/>
    <route id="route_template_39" edges="-6341956 -6354455#2 417109156 417109161#0 732311660 417292856 417292872 518175685 417292836#0 39158025#1 39158025#2 39158025#3 417292858#0 243743797#1 417292827#0 417292880 417292849"/>
    <route id="route_template_40" edges="-1389412805 37437877 37436237#2 1384102708 417712050 417099875 417099863 417099854 -1125518056 6377976#5 -6377976#5"/>
    <route id="route_template_41" edges="6361345#2 6361345#3 1385401545#0 6377581#1 -6377581#1"/>
    <route id="route_template_42" edges="6369876#2 -6369876#2 -6369876#1 -6335775#1"/>
    <route id="route_template_43" edges="154200665 417109211#0 417101890#1 417101890#2 417109117 417109147#0 417109147#1 417109127 417109137 417101777 417101776#1 417101870#0 -725202076#5 -725202076#4 -725202076#3 -725202076#2 -6347072#1 -6369691 -725202070#1"/>
    <route id="route_template_44" edges="154200665 417109211#0 732311660 417292856 417292872 518175685 417292836#0 39158025#1"/>
    <route id="route_template_45" edges="-417095584#4 -417095584#3 359194846#0 -359194818#1 -359194818#0 417095586#1 -6399698#1 -6399698#0 6367573#1 -6387370#2 -6387370#1 -6388379 6388379"/>
    <route id="route_template_46" edges="-6352738#5 -6348077#3 -6348077#2 -6348077#1 -6332221#1 -6332221#0 -6344516#2 6335446"/>
    <route id="route_template_47" edges="-6363296#0 6363296#0 6363296#1 417292880 417292849 417313474"/>
    <route id="route_template_48" edges="6387370#1 6387370#2 6387370#3 -6387370#3"/>
    <route id="route_template_49" edges="6369876#5 -6369876#5 -6369876#4 -6369876#3 -6369876#2 6352738#0 6352738#2 6352738#3 6352738#4 -6352738#4 -6352738#3 -6352738#2"/>
    <route id="route_template_50" edges="-6377581#1 1385401545#1 1383420583#1 1383420583#2 -6393379#4 -6393379#3 -6393379#2 417101776#1 417101870#0"/>
    <route id="route_template_51" edges="6402363#4 -6402363#4 -6402363#3 -6402363#2 -6402363#1 -6402363#0 -6378652#0 1417292398#0 1417292398#1 1417292398#2 -1417292398#2"/>
    <route id="route_template_52" edges="-6352738#4 -6352738#3 -6352738#2 -6352738#0 6369876#2 -1125517722 319667116#5 319667116#6 6347924#1 6347924#2"/>
    <route id="route_template_53" edges="6340539#3 -6340539#3 6321428#1 417104907#0"/>
    <route id="route_template_54" edges="39158025#3 417292858#0 -6350903#1 6337807#0 -6347643#0 6347643#0"/>
    <route id="route_template_55" edges="-6350903#1 -6346825 -6346823#2 -6346823#1 -6363296#0"/>
    <route id="route_template_56" edges="6394564 -6394564 -725202076#2 -6347072#1 -6369691 725202070#2"/>
    <route id="route_template_57" edges="359194828#0 -359194818#0 417095586#1 -6399698#1 -6399698#0"/>
    <route id="route_template_58" edges="-6348077#3 -6335775#3 6332221#3 -6352738#0 6369876#2 6369876#3 6369876#4"/>
    <route id="route_template_59" edges="-6347924#1 -319667116#6 -319667116#5 6386053#1 -6369876#2 6352738#0 -6332221#3 -6332221#2 -6332221#1 -6332221#0 -6344516#2 -6344516#1 -6344516#0 6388184#0 6388184#1"/>
    <route id="route_template_60" edges="417292915#2 -6335137#1 -6335137#0 -6388594#1 -6402363#3 -6402363#2 -6402363#1 -6402363#0 -6378652#0 1417292398#0 1417292398#1 -6369011"/>
    <route id="route_template_61" edges="6342607#3 6344437#8"/>
    <route id="route_template_62" edges="6352824#3 -6352824#3 -6330455 6330455"/>
    <route id="route_template_63" edges="-725202076#3 -725202076#2 -725202076#1 6406203#1 -6406203#1"/>
    <route id="route_template_64" edges="-6340646#1 6330199 521790711 6336411#2"/>
    <route id="route_template_65" edges="-6366623#3 -6366623#2 -6366623#1 -6338197 6338197"/>
    <route id="route_template_66" edges="6371200 -6371200 -6329264 -1013410640 -6330581 6330581"/>
    <route id="route_template_67" edges="6361345#3 1385401545#0 6377581#1 -6377581#1"/>
    <route id="route_template_68" edges="417095584#3 417095584#4 417095586#0 417095586#1 -6399698#1 -6362658#1 6340514#0 -6407240"/>
    <route id="route_template_69" edges="-6344516#0 1125168399#0 1125168399#1 -1125168399#1"/>
    <route id="route_template_70" edges="242565997#3 -242565997#3 6342607#0 6342607#1 6342607#2 6342607#3"/>
    <route id="route_template_71" edges="1125168400#5 1125168400#6 6344516#0 6344516#1 6344516#2 6332221#0 6332221#1 -6348077#0 6348077#0"/>
    <route id="route_template_72" edges="6352738#3 6352738#4 -6348077#3 -6335775#3 6332221#3 -6352738#0 -6369876#1"/>
    <route id="route_template_73" edges="39158025#3 417292858#0 243743797#1 417292827#0 6363296#3 6402363#2 6402363#3"/>
    <route id="route_template_74" edges="6377773#13 417109137 417101777 417101776#1 417101870#0 -725202076#5 -725202076#4 -725202076#3 -725202076#2"/>
    <route id="route_template_75" edges="-6388594#1 6388594#1 6335137#0 6335137#1 417292893#1 417292893#2 475725674"/>
    <route id="route_template_76" edges="6388379 6387370#1 6387370#2 -6367573#1 -6367573#0 6399698#1 -6399698#1"/>
    <route id="route_template_77" edges="6346823#1 6346823#2 -6396153"/>
    <route id="route_template_78" edges="-6363296#4 -6402363#1 -6402363#0"/>
    <route id="route_template_79" edges="6369876#1 6352738#0 -6332221#3 -6332221#2 -6332221#1 -6332221#0 -6344516#2 6344516#2"/>
    <route id="route_template_80" edges="-6335775#3 -6332221#2 -6332221#1 -6332221#0 -6344516#2 6335446"/>
    <route id="route_template_81" edges="6359542 6377973#2 -6377973#2"/>
    <route id="route_template_82" edges="6381688#0 6381688#1 6375774#1"/>
    <route id="route_template_83" edges="-6375774#0 -6381688#0 -1125168399#0 6344516#0 6344516#1"/>
    <route id="route_template_84" edges="6402363#2 -6402363#2 -6363296#3 -6363296#1 6346823#1 6346823#2"/>
    <route id="route_template_85" edges="6394156#1 6394156#2 6394156#3 6394156#4 6394156#5 -6394156#5"/>
    <route id="route_template_86" edges="-6335137#1 -6335137#0 6335137#0"/>
    <route id="route_template_87" edges="-6373565 -6368277 6368277 6373565 6334288#1 6334288#2 6334288#4 417099785#1 417099825#0 1477883140#1"/>
    <route id="route_template_88" edges="-6352738#2 -6332221#3 -6332221#2 -6332221#1 -6332221#0 -6344516#2 -6344516#1 -6344516#0 1125168399#0 6381688#0 -6381688#0"/>
    <route id="route_template_89" edges="6346823#0 6346823#1 6346823#2 -6396153 6396153"/>
    <route id="route_template_90" edges="-6341956 -6354455#2 417109156 417109161#0 732311660 417292856 417292872 518175685 417292836#0 39158025#1 39158025#2 39158025#3 417292858#0 243743797#1 417292827#0 -6363296#1 -6363296#0"/>
    <route id="route_template_91" edges="-371516999 -6394156#6 -6352738#5 -6348077#3 -6348077#2 -6348077#1"/>
    <route id="route_template_92" edges="6361345#2 6361345#3 1385401545#0 1385401545#1 1383420583#1 1383420583#2 -6393379#4 -6393379#3 -6393379#2 417101776#1 417101870#0 -725202076#5 -725202076#4 -725202076#3 -725202076#2 -725202076#1 -725202076#0 6402235#1"/>
    <route id="route_template_93" edges="6344516#0 6344516#1 6344516#2 6332221#0 6332221#1 6332221#2 6332221#3 -6352738#0 6369876#2 6369876#3"/>
    <route id="route_template_94" edges="6348077#3 6352738#5 -6394156#5 -6394156#4 -6394156#3 -6394156#2 6394156#2"/>
    <route id="route_template_95" edges="-6352738#0 6369876#2 6369876#3 6347924#4 6347924#5 6344437#1 -6327105#6"/>
    <route id="route_template_96" edges="6402363#0 -6402363#0 -6378652#0 1417292398#0 -6394972"/>
    <route id="route_template_97" edges="-237427640#1 -237427640#0 -237427639#0"/>
    <route id="route_template_98" edges="-6340539#3 6321428#1 -6387869#0 -6387866"/>
    <route id="route_template_99" edges="6403151 -6403151 1125518046#2 1125518046#3 6380116 -6380116"/>
    <route id="route_template_100" edges="-6330053#5 -6369876#5 -6369876#4 -6369876#3 -6369876#2 6352738#0 -6332221#3 -6332221#2 -6332221#1 -6332221#0 -6344516#2 -6344516#1 -6344516#0 1125168399#0 -1125168399#0"/>
    <route id="route_template_101" edges="39158025#3 417292858#0 243743797#1 417292827#0 6363296#3 -6402363#1 -6402363#0 -6378652#0 1417292398#0 -6394972 6394972"/>
    <route id="route_template_102" edges="6335137#7 -6335137#7 -6335137#1 -6335137#0 6388594#2 -6399891#1"/>
    <route id="route_template_103" edges="417109218 154200665 417109211#0 732311660 417292856 417292872 518175685 417292836#0"/>
    <route id="route_template_104" edges="1098456711 -1098456711 83588154 417099665 417099715 417099641"/>
    <route id="route_template_105" edges="725202070#2 6402235#1 -725202074#2"/>
    <route id="route_template_106" edges="6379080 6397701#0 6359975 -6359975"/>
    <route id="route_template_107" edges="-6340656#1 -6402363#2 -6402363#1 -6402363#0 -6378652#0 1417292398#0 -6394972 6394972"/>
    <route id="route_template_108" edges="-417095584#4 -417095584#3 359194846#0 -359194818#1 -359194818#0 359194818#0"/>
    <route id="route_template_109" edges="6354457#0 -6354455#3 -6354455#2 417109147#0 417109147#1 417109127 417109137 417101777 417101776#1 417101870#0 -725202076#5 -725202076#4 -725202076#3 -725202076#2 -725202076#1 725202076#1"/>
    <route id="route_template_110" edges="6396153 -6346823#2 -6346823#1"/>
    <route id="route_template_111" edges="6406738 -6406738 6321550#2 6321550#3 -6373689"/>
    <route id="route_template_112" edges="6358855#0 417109147#1 417109127 417109137 417101777 6393379#2 -6345474#0 6345474#0"/>
    <route id="route_template_113" edges="6345286#1 -6345286#1 6330783#9 6330783#10 1383420583#1 1383420583#2 -6393379#4 -6393379#3 -6393379#2 417101776#1 417101870#0 -725202076#5 -725202076#4 -725202076#3 -725202076#2 -725202076#1 -725202076#0 -725202070#2"/>
    <route id="route_template_114" edges="417099658 417099694 216938526#0 216938526#1 216938526#2 -216938526#2 -216938526#1 -216938526#0"/>
    <route id="route_template_115" edges="-6366901#0 6366901#0 6352824#4 6352824#5 -6398384#0"/>
    <route id="route_template_116" edges="-417095586#0 417095586#0 417095586#1 -6399698#1 -6362658#1 6340514#0 -6407240 6407240"/>
    <route id="route_template_117" edges="6377054#1 6395744 -1125518046#2 -1125518046#1 -6329264"/>
    <route id="route_template_118" edges="319199244 417099764 319204819#1 119466108 6348243 417099872 160251185 -1125518056 -6377054#2 -6377054#1 -6377054#0"/>
    <route id="route_template_119" edges="-725202076#5 -6331370#5 -6331370#4 -6331370#2 -6331370#1 -6331370#0 -725202070#0 725202070#0"/>
    <flow id="global_flow_0" type="global_car" route="route_template_0" begin="0.0" end="1000000000.0" period="5.0" departLane="best" departPos="free" departSpeed="max"/>
    <flow id="global_flow_1" type="global_car" route="route_template_1" begin="0.0" end="1000000000.0" period="5.0" departLane="best" departPos="free" departSpeed="max"/>
    <flow id="global_flow_2" type="global_car" route="route_template_2" begin="0.0" end="1000000000.0" period="5.0" departLane="best" departPos="free" departSpeed="max"/>
    <flow id="global_flow_3" type="global_car" route="route_template_3" begin="0.0" end="1000000000.0" period="5.0" departLane="best" departPos="free" departSpeed="max"/>
    <flow id="global_flow_4" type="global_car" route="route_template_4" begin="0.0" end="1000000000.0" period="5.0" departLane="best" departPos="free" departSpeed="max"/>
    <flow id="global_flow_5" type="global_car" route="route_template_5" begin="0.0" end="1000000000.0" period="5.0" departLane="best" departPos="free" departSpeed="max"/>
    <flow id="global_flow_6" type="global_car" route="route_template_6" begin="0.0" end="1000000000.0" period="5.0" departLane="best" departPos="free" departSpeed="max"/>
    <flow id="global_flow_7" type="global_car" route="route_template_7" begin="0.0" end="1000000000.0" period="5.0" departLane="best" departPos="free" departSpeed="max"/>
    <flow id="global_flow_8" type="global_car" route="route_template_8" begin="0.0" end="1000000000.0" period="5.0" departLane="best" departPos="free" departSpeed="max"/>
    <flow id="global_flow_9" type="global_car" route="route_template_9" begin="0.0" end="1000000000.0" period="5.0" departLane="best" departPos="free" departSpeed="max"/>
    <flow id="global_flow_10" type="global_car" route="route_template_10" begin="0.0" end="1000000000.0" period="5.0" departLane="best" departPos="free" departSpeed="max"/>
    <flow id="global_flow_11" type="global_car" route="route_template_11" begin="0.0" end="1000000000.0" period="5.0" departLane="best" departPos="free" departSpeed="max"/>
    <flow id="global_flow_12" type="global_car" route="route_template_12" begin="0.0" end="1000000000.0" period="5.0" departLane="best" departPos="free" departSpeed="max"/>
    <flow id="global_flow_13" type="global_car" route="route_template_13" begin="0.0" end="1000000000.0" period="5.0" departLane="best" departPos="free" departSpeed="max"/>
    <flow id="global_flow_14" type="global_car" route="route_template_14" begin="0.0" end="1000000000.0" period="5.0" departLane="best" departPos="free" departSpeed="max"/>
    <flow id="global_flow_15" type="global_car" route="route_template_15" begin="0.0" end="1000000000.0" period="5.0" departLane="best" departPos="free" departSpeed="max"/>
    <flow id="global_flow_16" type="global_car" route="route_template_16" begin="0.0" end="1000000000.0" period="5.0" departLane="best" departPos="free" departSpeed="max"/>
    <flow id="global_flow_17" type="global_car" route="route_template_17" begin="0.0" end="1000000000.0" period="5.0" departLane="best" departPos="free" departSpeed="max"/>
    <flow id="global_flow_18" type="global_car" route="route_template_18" begin="0.0" end="1000000000.0" period="5.0" departLane="best" departPos="free" departSpeed="max"/>
    <flow id="global_flow_19" type="global_car" route="route_template_19" begin="0.0" end="1000000000.0" period="5.0" departLane="best" departPos="free" departSpeed="max"/>
    <flow id="global_flow_20" type="global_car" route="route_template_20" begin="0.0" end="1000000000.0" period="5.0" departLane="best" departPos="free" departSpeed="max"/>
    <flow id="global_flow_21" type="global_car" route="route_template_21" begin="0.0" end="1000000000.0" period="5.0" departLane="best" departPos="free" departSpeed="max"/>
    <flow id="global_flow_22" type="global_car" route="route_template_22" begin="0.0" end="1000000000.0" period="5.0" departLane="best" departPos="free" departSpeed="max"/>
    <flow id="global_flow_23" type="global_car" route="route_template_23" begin="0.0" end="1000000000.0" period="5.0" departLane="best" departPos="free" departSpeed="max"/>
    <flow id="global_flow_24" type="global_car" route="route_template_24" begin="0.0" end="1000000000.0" period="5.0" departLane="best" departPos="free" departSpeed="max"/>
    <flow id="global_flow_25" type="global_car" route="route_template_25" begin="0.0" end="1000000000.0" period="5.0" departLane="best" departPos="free" departSpeed="max"/>
    <flow id="global_flow_26" type="global_car" route="route_template_26" begin="0.0" end="1000000000.0" period="5.0" departLane="best" departPos="free" departSpeed="max"/>
    <flow id="global_flow_27" type="global_car" route="route_template_27" begin="0.0" end="1000000000.0" period="5.0" departLane="best" departPos="free" departSpeed="max"/>
    <flow id="global_flow_28" type="global_car" route="route_template_28" begin="0.0" end="1000000000.0" period="5.0" departLane="best" departPos="free" departSpeed="max"/>
    <flow id="global_flow_29" type="global_car" route="route_template_29" begin="0.0" end="1000000000.0" period="5.0" departLane="best" departPos="free" departSpeed="max"/>
    <flow id="global_flow_30" type="global_car" route="route_template_30" begin="0.0" end="1000000000.0" period="5.0" departLane="best" departPos="free" departSpeed="max"/>
    <flow id="global_flow_31" type="global_car" route="route_template_31" begin="0.0" end="1000000000.0" period="5.0" departLane="best" departPos="free" departSpeed="max"/>
    <flow id="global_flow_32" type="global_car" route="route_template_32" begin="0.0" end="1000000000.0" period="5.0" departLane="best" departPos="free" departSpeed="max"/>
    <flow id="global_flow_33" type="global_car" route="route_template_33" begin="0.0" end="1000000000.0" period="5.0" departLane="best" departPos="free" departSpeed="max"/>
    <flow id="global_flow_34" type="global_car" route="route_template_34" begin="0.0" end="1000000000.0" period="5.0" departLane="best" departPos="free" departSpeed="max"/>
    <flow id="global_flow_35" type="global_car" route="route_template_35" begin="0.0" end="1000000000.0" period="5.0" departLane="best" departPos="free" departSpeed="max"/>
    <flow id="global_flow_36" type="global_car" route="route_template_36" begin="0.0" end="1000000000.0" period="5.0" departLane="best" departPos="free" departSpeed="max"/>
    <flow id="global_flow_37" type="global_car" route="route_template_37" begin="0.0" end="1000000000.0" period="5.0" departLane="best" departPos="free" departSpeed="max"/>
    <flow id="global_flow_38" type="global_car" route="route_template_38" begin="0.0" end="1000000000.0" period="5.0" departLane="best" departPos="free" departSpeed="max"/>
    <flow id="global_flow_39" type="global_car" route="route_template_39" begin="0.0" end="1000000000.0" period="5.0" departLane="best" departPos="free" departSpeed="max"/>
    <flow id="global_flow_40" type="global_car" route="route_template_40" begin="0.0" end="1000000000.0" period="5.0" departLane="best" departPos="free" departSpeed="max"/>
    <flow id="global_flow_41" type="global_car" route="route_template_41" begin="0.0" end="1000000000.0" period="5.0" departLane="best" departPos="free" departSpeed="max"/>
    <flow id="global_flow_42" type="global_car" route="route_template_42" begin="0.0" end="1000000000.0" period="5.0" departLane="best" departPos="free" departSpeed="max"/>
    <flow id="global_flow_43" type="global_car" route="route_template_43" begin="0.0" end="1000000000.0" period="5.0" departLane="best" departPos="free" departSpeed="max"/>
    <flow id="global_flow_44" type="global_car" route="route_template_44" begin="0.0" end="1000000000.0" period="5.0" departLane="best" departPos="free" departSpeed="max"/>
    <flow id="global_flow_45" type="global_car" route="route_template_45" begin="0.0" end="1000000000.0" period="5.0" departLane="best" departPos="free" departSpeed="max"/>
    <flow id="global_flow_46" type="global_car" route="route_template_46" begin="0.0" end="1000000000.0" period="5.0" departLane="best" departPos="free" departSpeed="max"/>
    <flow id="global_flow_47" type="global_car" route="route_template_47" begin="0.0" end="1000000000.0" period="5.0" departLane="best" departPos="free" departSpeed="max"/>
    <flow id="global_flow_48" type="global_car" route="route_template_48" begin="0.0" end="1000000000.0" period="5.0" departLane="best" departPos="free" departSpeed="max"/>
    <flow id="global_flow_49" type="global_car" route="route_template_49" begin="0.0" end="1000000000.0" period="5.0" departLane="best" departPos="free" departSpeed="max"/>
    <flow id="global_flow_50" type="global_car" route="route_template_50" begin="0.0" end="1000000000.0" period="5.0" departLane="best" departPos="free" departSpeed="max"/>
    <flow id="global_flow_51" type="global_car" route="route_template_51" begin="0.0" end="1000000000.0" period="5.0" departLane="best" departPos="free" departSpeed="max"/>
    <flow id="global_flow_52" type="global_car" route="route_template_52" begin="0.0" end="1000000000.0" period="5.0" departLane="best" departPos="free" departSpeed="max"/>
    <flow id="global_flow_53" type="global_car" route="route_template_53" begin="0.0" end="1000000000.0" period="5.0" departLane="best" departPos="free" departSpeed="max"/>
    <flow id="global_flow_54" type="global_car" route="route_template_54" begin="0.0" end="1000000000.0" period="5.0" departLane="best" departPos="free" departSpeed="max"/>
    <flow id="global_flow_55" type="global_car" route="route_template_55" begin="0.0" end="1000000000.0" period="5.0" departLane="best" departPos="free" departSpeed="max"/>
    <flow id="global_flow_56" type="global_car" route="route_template_56" begin="0.0" end="1000000000.0" period="5.0" departLane="best" departPos="free" departSpeed="max"/>
    <flow id="global_flow_57" type="global_car" route="route_template_57" begin="0.0" end="1000000000.0" period="5.0" departLane="best" departPos="free" departSpeed="max"/>
    <flow id="global_flow_58" type="global_car" route="route_template_58" begin="0.0" end="1000000000.0" period="5.0" departLane="best" departPos="free" departSpeed="max"/>
    <flow id="global_flow_59" type="global_car" route="route_template_59" begin="0.0" end="1000000000.0" period="5.0" departLane="best" departPos="free" departSpeed="max"/>
    <flow id="global_flow_60" type="global_car" route="route_template_60" begin="0.0" end="1000000000.0" period="5.0" departLane="best" departPos="free" departSpeed="max"/>
    <flow id="global_flow_61" type="global_car" route="route_template_61" begin="0.0" end="1000000000.0" period="5.0" departLane="best" departPos="free" departSpeed="max"/>
    <flow id="global_flow_62" type="global_car" route="route_template_62" begin="0.0" end="1000000000.0" period="5.0" departLane="best" departPos="free" departSpeed="max"/>
    <flow id="global_flow_63" type="global_car" route="route_template_63" begin="0.0" end="1000000000.0" period="5.0" departLane="best" departPos="free" departSpeed="max"/>
    <flow id="global_flow_64" type="global_car" route="route_template_64" begin="0.0" end="1000000000.0" period="5.0" departLane="best" departPos="free" departSpeed="max"/>
    <flow id="global_flow_65" type="global_car" route="route_template_65" begin="0.0" end="1000000000.0" period="5.0" departLane="best" departPos="free" departSpeed="max"/>
    <flow id="global_flow_66" type="global_car" route="route_template_66" begin="0.0" end="1000000000.0" period="5.0" departLane="best" departPos="free" departSpeed="max"/>
    <flow id="global_flow_67" type="global_car" route="route_template_67" begin="0.0" end="1000000000.0" period="5.0" departLane="best" departPos="free" departSpeed="max"/>
    <flow id="global_flow_68" type="global_car" route="route_template_68" begin="0.0" end="1000000000.0" period="5.0" departLane="best" departPos="free" departSpeed="max"/>
    <flow id="global_flow_69" type="global_car" route="route_template_69" begin="0.0" end="1000000000.0" period="5.0" departLane="best" departPos="free" departSpeed="max"/>
    <flow id="global_flow_70" type="global_car" route="route_template_70" begin="0.0" end="1000000000.0" period="5.0" departLane="best" departPos="free" departSpeed="max"/>
    <flow id="global_flow_71" type="global_car" route="route_template_71" begin="0.0" end="1000000000.0" period="5.0" departLane="best" departPos="free" departSpeed="max"/>
    <flow id="global_flow_72" type="global_car" route="route_template_72" begin="0.0" end="1000000000.0" period="5.0" departLane="best" departPos="free" departSpeed="max"/>
    <flow id="global_flow_73" type="global_car" route="route_template_73" begin="0.0" end="1000000000.0" period="5.0" departLane="best" departPos="free" departSpeed="max"/>
    <flow id="global_flow_74" type="global_car" route="route_template_74" begin="0.0" end="1000000000.0" period="5.0" departLane="best" departPos="free" departSpeed="max"/>
    <flow id="global_flow_75" type="global_car" route="route_template_75" begin="0.0" end="1000000000.0" period="5.0" departLane="best" departPos="free" departSpeed="max"/>
    <flow id="global_flow_76" type="global_car" route="route_template_76" begin="0.0" end="1000000000.0" period="5.0" departLane="best" departPos="free" departSpeed="max"/>
    <flow id="global_flow_77" type="global_car" route="route_template_77" begin="0.0" end="1000000000.0" period="5.0" departLane="best" departPos="free" departSpeed="max"/>
    <flow id="global_flow_78" type="global_car" route="route_template_78" begin="0.0" end="1000000000.0" period="5.0" departLane="best" departPos="free" departSpeed="max"/>
    <flow id="global_flow_79" type="global_car" route="route_template_79" begin="0.0" end="1000000000.0" period="5.0" departLane="best" departPos="free" departSpeed="max"/>
    <flow id="global_flow_80" type="global_car" route="route_template_80" begin="0.0" end="1000000000.0" period="5.0" departLane="best" departPos="free" departSpeed="max"/>