<?xml version="1.0" encoding="UTF-8"?>

<!-- generated on 2026-06-05 20:02:09.301740 by Eclipse SUMO randomTrips.py v0.0.0
<configuration>
    <net-file value="large_region.net.xml"/>
    <route-file value="pedestrians_large_region.rou.xml"/>
    <pedestrians value="True"/>
    <prefix value="ped_"/>
    <seed value="99"/>
    <validate value="False"/>
    <end value="7200.0"/>
    <period value="5.0"/>
</configuration>
-->

<!-- generated on 2026-06-05T20:00:53.306046-08:00 by Eclipse SUMO duarouter 1.26.0
<duarouterConfiguration xmlns:xsi="http://www.w3.org/2001/XMLSchema-instance" xsi:noNamespaceSchemaLocation="http://sumo.dlr.de/xsd/duarouterConfiguration.xsd">

    <input>
        <net-file value="large_region.net.xml"/>
        <route-files value="trips.trips.xml"/>
    </input>

    <output>
        <output-file value="pedestrians_large_region.rou.xml"/>
        <alternatives-output value="NUL"/>
    </output>

    <time>
        <begin value="0.0"/>
        <end value="7200.0"/>
    </time>

    <report>
        <no-warnings value="true"/>
        <ignore-errors value="true"/>
        <no-step-log value="true"/>
    </report>

</duarouterConfiguration>
-->

<routes xmlns:xsi="http://www.w3.org/2001/XMLSchema-instance" xsi:noNamespaceSchemaLocation="http://sumo.dlr.de/xsd/routes_file.xsd">
    <person id="ped_1" depart="5.00">
        <walk edges="-500534744#10 -500534744#11 -500534744#12 -500534744#13 500534728 -500534736#8 -500534736#9 -500534736#10 -500534736#11 -500534736#12 -500534736#14 -500534736#15 -500534720#0 -500534735#0 392674124 -417083907 93166872 232551448 -28773708#0 28773708#1 -236348383#0 -236348383#1 170983920#9 170983920#8 170983925#0 170983926#0 170983921 170983919#1 170983919#2 -1473896644#0 -6342335#9 -6342335#8 -6342335#7 -6342335#6 -6342335#5 -6342335#4 -6342335#3 -6342335#1 -6342335#0 -422356766#1 -422356766#0 703804365#0 704260612#1 1449584920#1 1449584919#1 1449584929#2 1449584929#3 -1449584929#4 1418187541#2 1418187541#1 1418187541#0 726987950 1449564693#1 1449564690 1449564686 1449564689#2 726987949#0 1449586124#7 1449586124#6 -1449586124#5 -1449586124#4 -1449586124#3 6373759#0 6373759#1 -6348049#1 -6399188#1 6399188#0 6359771#1 -6345489 6398785#15 6398785#14 6398785#13 6398785#12 6398785#11 6398785#10 6398785#9 6398785#8 -6398785#7 1449583329 1449584440#0 1449584440#1 417108486 82362117 417296053#2 417296053#1 1447877156#1 1447877155#1 417296028#4 417296028#3 417296028#2 417296028#1 417296028#0 88784655#5 417295965#0 417295965#1 417295965#2 417295965#3 417295965#4 1059805977 417295971#0 1447877143#21 1447872207 1447872206#0 1447872206#2 1447872205 1328640321#4 1328640321#3 1328640321#2 1328640321#1 417296001#1 1328640320#1 1328640319#2 1328640327#2 417295917#0 417295944 417295990#0 58178067#1 1472534920#1 1472534921#1 1338546938#0 1338546938#5 1472534932#0 1472534932#1 1472534942#1 1472534942#0 1472534939#8 417295938#1 417093199#0 417093199#1 417093234#2 417093234#1 1447662252#0 1447662249#2 1447662257#2 1447662252#1 417093145#2 417093145#1 417093145#0 -6369849#10 -6369849#9 571087687#1 -571087687#0 417093398#2 417093398#1 417093398#0 417093436#7 417093436#6 417093436#5 417093436#4 417093436#2 1447660202#1 417093436#0 1447660201#0 1447660199#2 417093346#0 417093392#1 500792289#0 500792289#1 6351264#8 -6351264#7 -6351264#6 -6351264#5 -6351264#4"/>
    </person>
    <person id="ped_2" depart="10.00">
        <walk edges="500537363#1 1315859822#1 1315859822#0 1383513078 1383513079#3 417107582#2 417107582#1 -81237235#0 -81237235#1 -81237235#2 -81237232#1 -81237232#2 -81237232#3 -81237232#4 -81237218#0 81237239 81237230#0 -154566458#2 -154566458#3 -154566458#4 -154566458#5 -154566458#6 -154566458#7 -154566458#9 -154566458#10 -154566458#11 500537413#0 1372775646 1372775645#1 1372775645#0 1372780341#1 1372780341#0 1449585631#2 1449585631#1 1449583913#1 1449583914#1 1449583908#2 1449583916 1449583918 1372812171#8 1372812171#9 1372812171#10 1372812171#11 417101854#1 417101854#0 417101774#2 1449567014#2 1317346175#1 1449567004#2 1317346178#1 745445597#1 243741313#2 243741313#3 243741313#4 243741313#5 417101878 1316067446#1 1449576425#1 1315881840#4 1315881840#3 1315881840#2 1315881840#1 417101884#0 1315881841#1 417109127 417109147#1 417109147#0 417109117 417101890#2 1316605925#11 1317352642#0 1316605926#2 1449601206 1316600793#1 1316600794#1 743199105#2 743199094#5 1417060922#1 1449602282#2 1449602284#0 -6327902#3 -6327902#1 -6327902#0 6336233#5 -6335430#0 -6335430#1 -6335430#2 -6335430#3 -6335430#4 -6335430#6 -6335430#7 -87221180#1 -87221180#0 -1056680278#2 156275578 -82362112#19 82362112#20 82362112#21 82362112#22 -82362112#23 82362112#24 -82362112#25 689588722 39158595#1 39158595#0 -6340953#12 -6346369#1 -6346369#0 392661528#3 392661528#2 392661528#0 728130220#0 392661515#3 392661515#2 392661515#1 6340139#7 6340139#8 6340139#9 6340139#10 -6340139#12 -6340139#13 -6340139#14 -6340139#15 -6340139#17 -6340139#18 -6340139#19 -6340139#20 -6340139#21 -6340139#22 -6340139#23 -6340139#24 -6340139#25 -6340139#26 571670002 -6359988#1 -6359988#2 500744418#3 -500744418#2 -500744418#1 -500744418#0 -82365150#6 -591562060#21 -591562060#20 -591562060#19 -591562060#18 -591562060#17 -591562060#16 -591562060#15 -591562060#13 -591562060#11 -591562060#10 -591562060#9 -591562060#8 -591562060#7 -591562060#6 -591562060#5 -591562060#4 -591562060#3 -591562060#2 -591562060#1 -591562060#0 -6395211#11 -6395211#10 -6395211#9 -6395211#8 -6395211#7 -6395211#6 -6395211#5 -6395211#4 -6395211#3 -6395211#2 -6395211#1 -6395211#0 -936371141#10 -936371141#9 -936371141#8 -936371141#6 -936371141#5 -936371141#3 -936371141#2 -936371141#1 -936371141#0 -6358055#12 -6358055#10 -6358055#9 -6358055#8 -6358055#7 -6358055#5 -6358055#4 -6358055#3"/>
    </person>
    <person id="ped_3" depart="15.00">
        <walk edges="1030285514#0 574289096#0 37739312#0 37784269 319671532#0 319671532#1 319671532#2 352586954 360213524#2 360213524#3 37739316#1 37763780#1 37763780#0 233698356#1 38019411#0 -828175393#1 -414542331 -350503681#0 350503679#2 -350503680 1424526945#2 1424526945#1 350508963#1 300820256#18 300820256#17 300820256#16 300820256#15 300820256#14 300820256#13 300822018#3 350501539#0"/>
    </person>
    <person id="ped_4" depart="20.00">
        <walk edges="121064679#1 627663829#16 627663829#15 627663835#0 -121250306#2 -1079304595 -1079304594 1193238420#1 1193238421#1 1193238418#1 1193238419#1 625340623#1 1193238417#1 1193238417#0 1193238412#1 66984532#1 651221063#1 -23741893#1 -23741893#2 -23741893#3 -23741893#5 -23741893#6 -23741893#8 -8925878#2 1447933080 1095043889#6 -558321982#3 -558321982#2 -558321982#1 1447939801#1 1095043895#0 95857266#1 95857266#2 -95857260 -266521415 781808197 1288954571#1 1288954575#1 1288954572#1 1447876492#1 -945346782 -1452308060 -266512680 -1083689202#1 -1083689202#2 -1083689202#3 -1083689202#4 -1083689202#5 43191692#1 1447910597#2 1447910597#1 1447910598#1 1447910611#6 1447910611#5 396870176#1 974560637 417934024 417934025 1269861573 385239717#0 385239717#2 385239717#3 396848629#0 396848629#1 1447913640#2 1447913639#0 573567321#0 385241951#3 385241951#2 385241951#1 385241951#0 396848620#0 396848620#1 396848620#2 396848616#0 396848616#1 929700977#1 929700977#2 929700977#3 929700977#4 929700977#5 929700977#6 929700977#7 929700977#8 396848642#0 396848642#1 396848642#2 396848618#0 25795510#6 25795510#5 25795510#4 25795510#3 25795510#2 25795510#1 1447852894 1447852896#0 1447852896#1 1447852895#1 1447852895#2 450954533#0 520143602#1 520143602#0 417091540#4 1112326829#2 1112326829#3 417091540#1 1112331919#1 1112324837#6 1112324837#5 396932719#1 396702355 1326457142 396932715 396702343 396702344 396696064#1 396696064#0 396932711 396702347 396702352#1 286297668#1 396696063#0 397025991 286297663 397025984 397025992 287548673#1 397025983 286297672 397025996 505632699#1 505632699#0 397025995 397026001#1 397026001#0 397025997 397025990#2 810441670 8941558#1 8941558#2 8941558#3 8941558#5 8941558#6 8941558#7 -8926897#0 8926896"/>
    </person>
    <person id="ped_5" depart="25.00">
        <walk edges="1111178151#1 1041225856#3 1109141834#3 -8931279#4 -8931279#2 -8931279#0 1109141834#8 1109141834#9 1109141834#10 1109141834#11 1109141834#12 1392212437 1109141835#1 1109141836#1 1109141836#2 1109141836#3 1109141836#4 159393760#22 1109139360#1 1109139359#1 1109139364#0 1109139364#1 -1392400835#9 -1392400835#8 -1392400835#7 -1392400835#5 -1392400835#4 -1392400835#3 -1392400835#2 -1392400835#1 -149515963#20 -149515963#19 -149515963#18 -149515963#17 -149515963#16 -149515963#15 -149515963#12 -149515963#11 -149515963#9 -149515963#8 1109159577#11 1109148736#1 -149515963#1 -1392402470#22 -1392402470#21 -1392402470#20 -1392402470#17 -1392402470#16 1109114272#12 -1392402470#11 1109114272#9 -1392402470#7 -1392402470#6 -1392402470#5 -1392402470#4 -1392402470#2 -1392402470#1 -1392402470#0 143519459 265105870#34 265105870#33 265105870#32 265105870#31 265105870#30 265105870#29 265105870#28 265105870#25 265105870#24 265105870#23 265105870#22 265105870#19 265105870#18 265105870#16 265105870#15 265105870#12 265105870#8 265105870#7 265105870#6 265105870#3 265105870#2 265105870#1 1108812984#2 1108812984#1 1108812984#0 1392791808 8942646#7 8942646#5 8942646#4 8942646#3 8942646#2 8942646#1 8942646#0 1392857706#4 1392857706#3 1392857706#2 1392857706#1 -1392857707#4 -1392857707#3 -1392857707#2 -1392857707#1 -1392857707#0 -396702813 -396702814#1 -396702814#0 1107564942#0 1107564941#0 -396706918#0 -676593556 396706925#1 396706925#0 -497785733#0 1107166630#1 1107166630#0 1159054760 -497785733#3 -497785733#4 -543191365#0 -543191365#1 -543191365#2 -543191365#3 -543191365#4 -543191365#5 -543191365#6 -543191365#7 -396845265#0 -166801726#1 -396845266#0 -396845266#1 -396845266#2 506419490#1 266513790#2 1028502578#2 1028502578#3 1028502578#4 1464424045#2 1464424045#0 1083552344#17 1083552344#16 1083552344#15 1083552344#14 1106959811#1 -692090043#1 1083552344#10 -692090043#3 -679316934 -908392125 -908392126#0 1083552344#6 1083552344#5 1083552344#4 908392126#5 908392126#7 908392126#8 908392126#9 1106955083#1 1083328933#5 1083328933#4 8926003#13 -8926003#14 1083328929#10 1083328929#11 1087093959#0 1087091307#0 704407086#1 -704407087 -396834867 -417323149#0 -417323149#2 -417323149#3 -683452016#0 -683452016#1 -683452016#2 -286297673#0 -286297673#1 -286297673#2 -286297673#3 -286297673#5 -286297673#6 -286297673#7 1050124964#10 1050124964#11 -286297673#12 -286297673#14 -286297673#16 -286297673#17 -286297673#18 -286297673#19 -286297673#20 -286297673#21 -286297673#22 -286297673#24 -286297673#25 -286297673#26 -286297673#27 1087093946#2 -539271771#2 -539271767#0 -539271767#1 -539271767#2 1087093942#7 -539271767#6 -539271767#7 -539271767#8 -539271767#9 1087093942#3 -539271767#14 -539271767#15 -539271767#16 -539271767#17 -539271767#18 -539271767#19 -539271767#20 -539271767#23 -539271767#25 -539271767#26 -539271767#27 -539271767#28 1087093926#3 -539271767#31 -539271767#32 -539271767#33 -539271767#34 -539271767#35 417323150#1 417323150#2 417323150#3 417323150#4 417323150#5 417323150#6 417323150#7 417323150#8 417323150#9 417323150#10 417317961#0 417317961#1 1464221084#1 417317961#4 417317961#5 417317961#9 417317961#10 417317961#12 417317961#13 417317972#0 417317972#1 417317972#2 417317972#4 417317972#5 417317972#6 417317972#7 417317972#8 417317972#9 417317972#10 417317972#11 1340576133#0 1340576133#1 1340576133#2 1117207258#0 1117207258#1 1117207258#2 8933872#0 8933872#1 8933872#2 8933872#3 8942027#0 8942027#2 8942027#3 -8942027#4 -8942027#5 -8942027#7 -8942027#8 -8942027#10 -8942027#11 -8942027#12 -8942027#14 -8942027#15 -8942027#17 -8942027#18 -8942027#19 -8942027#22 -8942027#23 -8942027#25 8931919#3 8931919#4 8931919#5 8931919#6 8938231#9 8938231#10 1115297791#1 1115297791#2 -8938231#14 -8938231#15 -8938231#18 -8938231#19 -8938231#21 -8924696#0 -8924696#1 -8924696#2 -8924696#5 -8924696#6 -8924696#8 -8924696#9 8924696#10 1113416784#5 1093192269#0"/>
    </person>
    <person id="ped_6" depart="30.00">
        <walk edges="1449596652 1449598002#2 417310742 1032903357#0 417107144 394390159 31399269 1006590594 417304363#0 417304363#1 417304363#2 51711521 417303918#0 -1231763177#0 -828307832#0 39158599 -39158605#0 1231764549 -574449072#1 -730897309 -6358632#37 -6358632#36 -6358632#34 -6358632#32 -500535935#1 500535935#0 -571471695#2"/>
    </person>
    <person id="ped_7" depart="35.00">
        <walk edges="730896575#0 392661528#5 392661528#4 392661528#3 392661528#2 392661528#0 728130220#0 392661515#3 392661515#2 392661515#1 1446619484#0 1446619483#1 1446619483#0 1446619481#2 392661517#2 392661517#1 392661517#0 749339232#2 749339232#1 749339232#0 392661529 1446619454 1446619457 1446619456#0 671164266#1 392661521#0 1446619461#1 1446619475#2 1446619475#1 1446619475#0 1446619468#0 417939587#0 48040998#1 48040998#0 417091808 417091807 671155626 671155625 671155627 514274167#0 514274167#1 1447860545#1 1447860545#0 684887804#0 684887804#1 684887804#2 1447852018#3 392657072#2 1447852018#1 392657072#4 723183346 417073512#0 417073520 51711510#0 417073524#2 1447858934#1 1447858934#2 1447858936#1 -779990200 -779990199 -571471786#3 -571471786#1 -697914632#0 -697914632#1 -697914632#2 697914632#3 -697914632#4 697914632#5 -6378238#0 -6334131#0 -6332926#0 -6332926#1 -6332926#3 1447652349 1447643396#1 1447643396#2 1447643404#2 685327074#1 -6349867#0 -6349867#1 -6405111#1 6339620#1 6398646#1 -961096773#1"/>
    </person>
    <person id="ped_16" depart="80.00">
        <walk edges="1107166624#1 1107166624#0 1107564941#1 396706918#0 676593556 396706925#1 1107564939 1107564937#0 396706919#3 396706919#2 396706919#1 396706919#0 396706921#1 1107564935#1 1107564936#0 396706923#2 396706923#1 396706923#0 679549840#2 -679549840#1 679549837 1107559679#2 500204896#1 500204896#2 1097395470#1 1097395471 1097395467#2 1097395467#1 723004166 723004164#1 723004168"/>
    </person>
    <person id="ped_17" depart="85.00">
        <walk edges="1449568101#1 94840738#1 1449568109#0 526837583 1206088481 1206088479#0 430430204#0 430430204#2 903925259 -521493070 -1340959810 655108869 396834340 38949652 1427553086#0 -417323408 -27177407 903621732#2 903621732#1 707353527#0 -1027577404#1 -1027577404#0 771099548#2 -771099548#0 1501278308#1 -417334152 -396696019 -515967109#0 -515967109#1 -73220473#0 -73220473#2 -396682005#0 -396682005#1 -396682005#2 -396682003#0 -396682002#1 -396682006#0 -396682006#1 -396682006#2 -396682006#3 -417316799#0 -417316799#1 -125126193#0 -125126193#1 -125126193#2 -125126193#3 -125126193#4 -125126193#5 125126193#6 125126193#8 125126193#9 125126193#10 125126193#11 125126193#12 125126193#13 -51972231#5 -205434172#0 -205434172#1 -205434172#3 -205434172#4 -205434172#5 -70806425 -1028206606#1 -1028206606#2 -1028206606#3 -1181069597#0 -1181069597#1 8957448#6 8957448#7 8957448#8"/>
    </person>
    <person id="ped_19" depart="95.00">
        <walk edges="81792316#0 81792316#1 -81792316#2 694395511#1 164126513#0 164126513#1 164126512 788704673 385248317 608464805 385248325 597275242 506440625 71183106 -1027581092#0 129694980#0 129694980#1 371736139#0 371736139#1 371736153 371736148#0 264056469#1 34539142#0 406942900 129132244 692090640#1 1106966279#3 1106966279#2 1106966279#1 1106966279#0 1106966278#1 396856565#2 396856565#1 1112570859#1 1257007149#0 1112570849#3 1106861358#0 396856562#1 1106966276#3 1106966276#2 286297665#1 286297665#0 1106966275#0 1106966274#3 1106966274#2 692092565#5 692092565#4 1106966272#0 1106966271#2 692092565#2 396851224#1 396851226#0 1112570846#1 1112570846#0 1112570844#2 1112570844#1 1112570844#0 1106882363#2 396846217 1028502578#7 1028502578#6 1028502578#5 1028502561#0 691794922#1 396846220#1 1028502551#10 1028502551#11 1106861352#1 1107559667#0 1107559666#4 1107559666#3 1107559666#2 1107559666#1 1107559665#5 1107559665#4 1107559665#3 1107559665#2 1107559665#1 1107559665#0 1106861346#2 1106861346#0 1106861349#0 1106861350#0 1106861349#2 396846219#1 396846219#2 396846219#3 396846219#4 396846219#5 396846219#6 396846219#7 396846219#8 396846219#9 396677845#0 397026002#1 397026002#2 810441673#0 810441673#1 397025987#0 397025987#1 397025990#0 397025990#1 397025990#2 397025997 397026001#0 397026001#1 397025995 505632699#0 505632699#1 397025996 286297672 397025983 287548673#1 397025992 397025984 286297663 397025991 396696063#0 286297668#1 396702352#1 396702347 396932711 396696064#0 396696064#1 396702344 396702343 396932715 1326457142 396702355 396932719#1 1112324837#5 1112324837#6 1112331919#1 417091540#1 1112326829#3 1112326829#2 417091540#4 520143602#0 520143602#1 450954533#0 1447852895#2 1447852895#1 1447852896#1 1447852896#0 1447852894 25795510#1 25795510#2 25795510#3 25795510#4 25795510#5 25795510#6 396848618#0 396848642#2 396848642#1 396848642#0 929700977#8 929700977#7 929700977#6 929700977#5 929700977#4 929700977#3 929700977#2 929700977#1 396848616#1 396848616#0 396848620#2 396848620#1 396848620#0 385241951#0 385241951#1 385241951#2 385241951#3 573567321#0 1447913639#0 1447913640#2 396848629#1 396848629#0 385239717#3 385239717#2 385239717#0 1269861573 417934025 417934024 974560637 396870176#1 1447910611#5 1447910611#6 1447910598#1 1447910597#1 1447910597#2 43191692#1 -1083689202#5 -1083689202#4 -1083689202#3 -1083689202#2 -1083689202#1 -266512680 -1452308060 -945346782 1447876492#1 1288954572#1 1288954575#1 1288954571#1 781808197 -266521415 -95857260 -417328921#1 1037478731#2 1095043880#6 1001933849 95857269#2 95857269#1 95857269#0 417325648 417325692#2 417325692#1 -960939010#1 -960939009 -1079155562 -1079155560 -262967784#0 -262967784#1 -1079155559 -1079155561#0 1079108412 1079108407#1 -1079155558#0 -1079155558#1 -1079155557#0 -706254794#0 -706254794#1 -706254794#2 -1079155556#0 -417329071#0"/>
    </person>
    <person id="ped_20" depart="100.00">
        <walk edges="570557701#1 1324499419#1 1324499420 1324499419#15 1324499419#14 1324499419#13 1324499419#12 1324499419#11 -570557682#0 -417217546#0 -417217546#3 417217572#0 1181295604#1 1181295604#0 417083873#2 417083873#1 759110849#3 1478427699#0 1478427699#1 1478427699#2 1478427699#3 600023566#5 600023566#6 600023566#7 600023566#8 600023566#9 600023561#0 600023561#1 711384068#0 723545096#0 417937209 -6367243#2 -6367243#3 6369063#1 6369063#0 6329945#2 -1069846054#1 6334291#1 6334291#2 6334291#3 1069846054#7 6403491#0 6403491#1 -6403491#2 -6403491#3 -6403491#4 6333661#11 6333661#10 6333661#9 6333661#8 6333661#7 6333661#6 6333661#5 6333661#4 -6333661#2 -459343012#1 -459343011#0 -459343011#1 417111363#2 -417086924 -459172131#14 459172131#13 -459172131#12 -459172131#11 -459172131#10 -459172131#9 -459172131#8 -459172131#7 -459172111#0 -459172112#1 -459172112#0 459172115#3 1107291692#2 1107291692#3 417083373#0 1041438264#1 1449584433 801393752 119466520 392677544 1449583937#1 1449582346#0 394407726#0 394407726#1 392675466 392676063#0 392676063#1 392676063#2 392676060 394407683#2 394407683#1 394407683#0 -392676050#1 392676050#0 -392678482#2 -392678482#0 745445601#1 745445601#2 392678480 392678481 394407731#1 394407731#0 394407734#0 394407734#1 394407734#2 394407734#3 394407734#4 394407706 -6339234 6332628#2 -6332628#1 -6332628#0 6407199#10 -6393295#7 -6393295#6 -6393295#5 -6393295#4 -6393295#2 -1341691756#1 -1341691756#0 -30915802#3 1239135549#1 1239135549#0 1239135545#0 1239135553 1239135554#0 1239135554#1 1239135546#2 1239135546#3 242415002#3 242415002#4 1316615061#12 1316615061#11 1316615061#10 1316615061#9 1316615061#8 1316615061#7 1316615061#6 1316615061#5 1316615061#4 1316615061#3 1316615061#2 -417109206 -1107630021 -1389397840 -417109203 -417109184 -417109170 417109193 1316608657 1317352642#2 1317352642#1 1316605925#11 417101890#2 417109117 417109147#0 417109147#1 417109127 1315881841#1 417101884#0 1315881840#1 1315881840#2 1315881840#3 1315881840#4 1449576425#1 1316067446#1 417101878 243741313#5 243741313#4 243741313#3 243741313#2 745445597#1 1317346178#1 1449567004#2 -1418368559#3 -1418368559#2 -1418368559#1 -1418368559#0 -725202073#3 -725202073#2 -725202073#1 -725202073#0 -6388021#0 -6388021#1 -6388021#3 -6388021#5 -6388021#6 -6388021#8 -6388021#9 -6388021#10 -6388021#12 417104827#0 417104788 1372780336#2 1449571077#1 618721963#0 417104702#1 1449571753#1 1449571753#2 1449571753#3 1449571753#4 1091166310 1448330589#1 1091162163#0 1377896018#1 1231133559 1231133558#1 357008615#5 357008615#6 357008615#7 1231133549#2 1231133550#1 1231133550#2 1449611014#4 1449611014#3 -232194287#1 417104689 617259158#1 617259158#0 1070248376 363859985#2 1449611007#1 1449611012#2 71094948#0 -48118901#0 -1477873740 -37797974#1 -37797974#2 -37797974#3 -37797974#4 -350501527#0 -350501527#1 350501528 350501526 37797967#1 37797967#0 233698356#6 233698356#5 233698356#4 1425454171"/>
    </person>
    <person id="ped_21" depart="105.00">
        <walk edges="913351892 8925156#0 8925156#2 8925156#3 8925156#4 8929031#2 8929031#3 -8936859#16 -8936859#15 -8936859#13 -8936859#12 -8936859#11 -8936859#10 -8936859#9 -8936859#7 -8936859#6 -8936859#5 -8936859#4 8936859#3 8936859#2 8936859#1 8936859#0 417267855#1 417267855#0 -1413432047 264200971#0 264200971#1 264200971#2 264200971#3 264200971#4 264200971#6 264200971#7 264200971#8 264200971#10 264200971#11 264200971#12 264200971#13 264200971#14 264200971#15 264200971#18 264200971#19 264200971#20 264200971#21 264200971#22 264200971#23 264200971#24 264200971#25 264200971#26 264200971#27 264200971#28 264200971#29 264200971#30 264200971#31 264200971#32 264200971#33 264200971#34 264200971#35 264200971#36 264200971#37 264200971#38 264200971#39 264200971#40 264200971#41 264200971#42 264200971#43 264200971#44 264200971#45 264200971#46 264200971#47 264200971#48 264200971#50 264200971#51 264200971#52 264200971#53 264200971#54 1112324837#5 1112324837#6 1112331919#1 417091540#1 1112326829#3 1112326829#2 756420368#3 756420370 -756420367#3 -756420367#2 -756420367#1 396847615#3 8936396#0 8936396#2 8936396#3 8936396#4 8936396#6 8936396#7 847128023#0 847128025 847128024 756420382 69420768#0 69420768#1 69420768#2 396847616 51866311#0 51866311#1 1304604615 1304604612 1304604614 1304604613#0 1304604613#1 1304604613#2 1304604613#3 1251036464#1 1251036464#2 1251036464#3 1112134895#3 1112134895#4 1112134895#6 1251036464#13 1251036464#14 1251036464#16 1251036464#17 1251036464#18 1251036464#19 1251036464#20 1251036464#21 1251036464#22 1251036464#24 1251036464#26 1251036464#27 1251036464#28 1251036464#29 1251036464#30 1251036464#31 1251036464#32 1251036464#34 1251036464#35 1251036464#37 1251036464#39 1251036464#40 1251036464#41 1251036464#42 1251036464#43 1251036464#45 1251036464#46 1251036464#47 69420766#1 69420766#2 69420766#3 69420766#4 69420766#6 69420766#7 69420766#8 69420766#9 1229452136 1229452135#0 1229452135#1 1229452135#2 706254792#0 8931107"/>
    </person>
    <person id="ped_23" depart="115.00">
        <walk edges="-1093259230#1 -8935855#1 -8935855#2 -8935855#3 -8935855#4 -8935855#5 8935556#5 8935556#3 8935556#2 149675873#1 149675873#0 1093250204 1093250202 1093250200 1093250198#3 1093250198#2 1093250198#1 1093250198#0 417317972#8 417317972#7 417317972#6 417317972#5 417317972#4 417317972#2 417317972#1 417317972#0 417317961#13 417317961#12 417317961#10 417317961#9 417317961#5 417317961#4 1464221084#1 417317961#1 417317961#0 417323150#10 417323150#9 417323150#8 417323150#7 417323150#6 417323150#5 417323150#4 417323150#3 417323150#2 417323150#1 -539271767#35 -539271767#34 -539271767#33 -539271767#32 -539271767#31 1087093926#3 -539271767#28 -539271767#27 -539271767#26 -539271767#25 -539271767#23 -539271767#20 -539271767#19 -539271767#18 -539271767#17 -539271767#16 -539271767#15 -539271767#14 1087093942#3 -539271767#9 -539271767#8 -539271767#7 -539271767#6 1087093942#7 -539271767#2 -539271767#1 -539271767#0 -539271771#2 1087093946#2 -286297673#27 -286297673#26 -286297673#25 -286297673#24 -286297673#22 -286297673#21 -286297673#20 -286297673#19 -286297673#18 -286297673#17 -286297673#16 -286297673#14 -286297673#12 1050124964#11 1050124964#10 -286297673#7 -286297673#6 -286297673#5 -286297673#3 -286297673#2 -286297673#1 -286297673#0 -683452016#2 -683452016#1 -683452016#0 -417323149#3 -417323149#2 -417323149#0 -396834867 -704407087 704407086#1 1087091307#0 1087093959#0 1083328929#11 1083328929#10 -8926003#14 8926003#13 1083328933#4 1083328933#5 1106955083#1 908392126#9 908392126#8 908392126#7 908392126#5 1083552344#4 1083552344#5 1083552344#6 -908392126#0 -908392125 -679316934 -692090043#3 1083552344#10 -692090043#1 1106959811#1 1083552344#14 1083552344#15 1083552344#16 1083552344#17 1464424045#0 1464424045#2 1028502578#4 1028502578#3 1028502578#2 266513790#2 506419490#1 -396845266#2 -396845266#1 -396845266#0 -166801726#1 -396845265#0 -543191365#7 -543191365#6 -543191365#5 -543191365#4 -543191365#3 -543191365#2 -543191365#1 -543191365#0 -497785733#4 -497785733#3 1159054760 1107166630#0 1107166630#1 -497785733#0 396706925#0 396706925#1 -676593556 -396706918#0 1107564941#0 1107564942#0 -396702814#0 -396702814#1 -396702813 -1392857707#0 -8932089#1 -8935543#0 -8935543#1 -8935543#2 -8935543#3 -8935543#4 -8935543#5 -8935543#6 -8935543#7 -8935543#8 -8935543#9 -8935543#10 -8935543#11 -8935543#12 -8935543#13 -8935543#14 -8935543#15 -8935543#16 8935543#18 8935543#19 8935543#21 8935543#22 8935543#23 8935543#24 8924036#12 1108810910#3 1108810910#2 8924036#15 1392734275 1108810905#3 1108810905#1 1108810905#0 1108809348#1 8924036#21 1108809351#0 1108809346#16 1108809346#15 1108809347#0 1108809342#14 1108809342#16 1108809342#17 1108809344#1 1108807374#21 1108807373#0 1108807370#11 1108807370#10 -672138150#1 -672138150#2 -672138150#3 -672138150#4 -672138150#5 -672138150#6 -672138150#7 -672138150#8 672138150#9 8932029#1 8932029#2 8932029#3 8932029#5 8932029#6 8932029#7 1108807376#0"/>
    </person>
    <person id="ped_25" depart="125.00">
        <walk edges="1093379426#0 8935556#19 8935556#18 8935556#17 8935556#16 8935556#12 8935556#10 8935556#9 8935556#8 8935556#5 8935556#3 8935556#2 149675873#1 149675873#0 1093250204 1093250202 1093250200 1093250198#3 1093250198#2 1093250198#1 1093250198#0 417317972#8 417317972#7 417317972#6 417317972#5 417317972#4 417317972#2 417317972#1 417317972#0 417317961#13 417317961#12 417317961#10 417317961#9 417317961#5 417317961#4 1464221084#1 417317961#1 417317961#0 417323150#10 417323150#9 417323150#8 417323150#7 417323150#6 417323150#5 417323150#4 417323150#3 417323150#2 417323150#1 -539271767#35 -539271767#34 -539271767#33 -539271767#32 -539271767#31 1087093926#3 -539271767#28 -539271767#27 -539271767#26 -539271767#25 -539271767#23 -539271767#20 -539271767#19 -539271767#18 -539271767#17 -539271767#16 -539271767#15 -539271767#14 1087093942#3 -539271767#9 -539271767#8 -539271767#7 -539271767#6 1087093942#7 -539271767#2 -539271767#1 -539271767#0 -539271771#2 1087093946#2 -286297673#27 -286297673#26 -286297673#25 -286297673#24 -286297673#22 -286297673#21 -286297673#20 -286297673#19 -286297673#18 -286297673#17 -286297673#16 -286297673#14 -286297673#12 1050124964#11 1050124964#10 -286297673#7 -286297673#6 -286297673#5 -286297673#3 -286297673#2 -286297673#1 -286297673#0 -683452016#2 -683452016#1 -683452016#0 -417323149#3 -417323149#2 -417323149#0 -396834867 -704407087 704407086#1 1087091307#0 1087093959#0 1083328929#11 1083328929#10 -8926003#14 8926003#13 1083328933#4 1083328933#5 1106955083#1 908392126#9 908392126#8 908392126#7 908392126#5 1083552344#4 1083552344#5 1083552344#6 -908392126#0 -908392125 -679316934 -692090043#3 1083552344#10 -692090043#1 1106959811#1 1083552344#14 1083552344#15 1083552344#16 1083552344#17 1464424045#0 1464424045#2 1028502578#4 1028502578#3 1028502578#2 266513790#2 506419490#1 -396845266#2 -396845266#1 -396845266#0 -166801726#1 -396845265#0 -543191365#7 -543191365#6 -543191365#5 -543191365#4 -543191365#3 -543191365#2 -543191365#1 -543191365#0 -497785733#4 -497785733#3 1159054760 1107166630#0 1107166630#1 -497785733#0 396706925#0 396706925#1 -676593556 -396706918#0 1107564941#0 1107564942#0 -396702814#0 -396702814#1 -396702813 -1392857707#0 -1392857707#1 -1392857707#2 -1392857707#3 -1392857707#4 1392857706#1 1392857706#2 1392857706#3 1392857706#4 8942646#0 8942646#1 8942646#2 8942646#3 8942646#4 8942646#5 -8942646#7 -519962295#7 -519962295#6 519962295#4 -519962295#3 -519962295#2 -519962295#1 519962295#0 1046354139#1 241817718#1 241817718#2 241817718#3 241817718#4 241817718#5 1393610326#1 1393610324#0 1393610324#1 1393610325#1 1046354142#1 1046354142#2 8939361#4 8939361#5 1046354146#0 1046352168#12 8939361#8 1046352168#10 1046354149#0 8939361#12 8939361#13 1046352169#10 1046352169#11 8942212#3 8942212#4 8942212#5 8942212#7 -8942212#8 -8942212#10 -8942212#11 1046352168#63 -128243946#0"/>
    </person>
    <person id="ped_26" depart="130.00">