<routes>
    <vType id="ambulance"
           vClass="emergency"
           guiShape="emergency"
           length="15.0"
           width="5.0"
           minGap="0.5"
           accel="3.5"
           decel="6.0"
           emergencyDecel="9.0"
           maxSpeed="8.0"
           sigma="0.1"
           tau="0.5"
           color="255,0,0"
           jmIgnoreFoeSpeed="100"
           jmIgnoreFoeProb="1.0"
           jmIgnoreKeepClearTime="-1"
           jmDriveAfterYellowTime="100"
           jmDriveAfterRedTime="100"/>
    <vType id="global_car"
           vClass="passenger"
           guiShape="passenger"
           length="4.8"
           width="1.8"
           minGap="2.5"
           accel="2.6"
           decel="4.5"
           emergencyDecel="9.0"
           maxSpeed="13.9"
           sigma="0.5"
           tau="1.0"
           lcStrategic="80.0"
           lcCooperative="1.0"
           lcSpeedGain="0.03"
           lcKeepRight="0.0"
           lcAssertive="0.45"
           jmIgnoreKeepClearTime="-1"
           jmDriveAfterYellowTime="-1"
           jmDriveAfterRedTime="-1"/>
</routes>
