<?xml version="1.0" encoding="UTF-8"?>

<!-- generated on 2026-06-06 14:25:37.617693 by Eclipse SUMO randomTrips.py v0.0.0
<configuration>
    <net-file value="/Users/keshav/Downloads/sumo_traffic_project/new_map.net.xml"/>
    <route-file value="/Users/keshav/Downloads/sumo_traffic_project/background_train_all_0p6_seed3.rou.xml"/>
    <prefix value="all_0p6_s3_car_"/>
    <trip-attributes value="type=&quot;car&quot; departLane=&quot;best&quot; departPos=&quot;free&quot; departSpeed=&quot;max&quot;"/>
    <seed value="3"/>
    <validate value="False"/>
    <end value="7200.0"/>
    <period value="0.6"/>
</configuration>
-->

<routes xmlns:xsi="http://www.w3.org/2001/XMLSchema-instance" xsi:noNamespaceSchemaLocation="http://sumo.dlr.de/xsd/routes_file.xsd">
    <trip id="all_0p6_s3_car_0" depart="0.00" from="-6346214#7" to="319199244" type="car" departLane="best" departPos="free" departSpeed="max"/>
    <trip id="all_0p6_s3_car_1" depart="0.60" from="-6395100" to="417104757" type="car" departLane="best" departPos="free" departSpeed="max"/>
    <trip id="all_0p6_s3_car_2" depart="1.20" from="417109170" to="-237427642" type="car" departLane="best" departPos="free" departSpeed="max"/>
    <trip id="all_0p6_s3_car_3" depart="1.80" from="-1125518021#0" to="6371200" type="car" departLane="best" departPos="free" departSpeed="max"/>
    <trip id="all_0p6_s3_car_4" depart="2.40" from="-6352824#1" to="-6346823#0" type="car" departLane="best" departPos="free" departSpeed="max"/>
    <trip id="all_0p6_s3_car_5" depart="3.00" from="87488171#1" to="119466342#2" type="car" departLane="best" departPos="free" departSpeed="max"/>
    <trip id="all_0p6_s3_car_6" depart="3.60" from="6369540#2" to="1239135966" type="car" departLane="best" departPos="free" departSpeed="max"/>
    <trip id="all_0p6_s3_car_7" depart="4.20" from="417109221#6" to="-6330455" type="car" departLane="best" departPos="free" departSpeed="max"/>
    <trip id="all_0p6_s3_car_8" depart="4.80" from="417109218" to="6378652#1" type="car" departLane="best" departPos="free" departSpeed="max"/>
    <trip id="all_0p6_s3_car_9" depart="5.40" from="216938526#1" to="6337854#1" type="car" departLane="best" departPos="free" departSpeed="max"/>
    <trip id="all_0p6_s3_car_10" depart="6.00" from="518175685" to="-237427640#1" type="car" departLane="best" departPos="free" departSpeed="max"/>
    <trip id="all_0p6_s3_car_11" depart="6.60" from="6341056#1" to="417099885#3" type="car" departLane="best" departPos="free" departSpeed="max"/>
    <trip id="all_0p6_s3_car_12" depart="7.20" from="-6375779#3" to="-1385403723#1" type="car" departLane="best" departPos="free" departSpeed="max"/>
    <trip id="all_0p6_s3_car_13" depart="7.80" from="6377773#7" to="122220077#3" type="car" departLane="best" departPos="free" departSpeed="max"/>
    <trip id="all_0p6_s3_car_14" depart="8.40" from="6334288#2" to="6385767#1" type="car" departLane="best" departPos="free" departSpeed="max"/>
    <trip id="all_0p6_s3_car_15" depart="9.00" from="6332812" to="6396921#1" type="car" departLane="best" departPos="free" departSpeed="max"/>
    <trip id="all_0p6_s3_car_16" depart="9.60" from="-6405124" to="6352738#5" type="car" departLane="best" departPos="free" departSpeed="max"/>
    <trip id="all_0p6_s3_car_17" depart="10.20" from="-87488171#1" to="6402363#0" type="car" departLane="best" departPos="free" departSpeed="max"/>
    <trip id="all_0p6_s3_car_18" depart="10.80" from="6381688#0" to="-417095586#5" type="car" departLane="best" departPos="free" departSpeed="max"/>
    <trip id="all_0p6_s3_car_19" depart="11.40" from="-6320720" to="-6342879#2" type="car" departLane="best" departPos="free" departSpeed="max"/>
    <trip id="all_0p6_s3_car_20" depart="12.00" from="725202074#3" to="-87488171#0" type="car" departLane="best" departPos="free" departSpeed="max"/>
    <trip id="all_0p6_s3_car_21" depart="12.60" from="417109174" to="-6376677#0" type="car" departLane="best" departPos="free" departSpeed="max"/>
    <trip id="all_0p6_s3_car_22" depart="13.20" from="1418368559#0" to="-6402363#1" type="car" departLane="best" departPos="free" departSpeed="max"/>
    <trip id="all_0p6_s3_car_23" depart="13.80" from="-6390192#1" to="417099849" type="car" departLane="best" departPos="free" departSpeed="max"/>
    <trip id="all_0p6_s3_car_24" depart="14.40" from="417099721" to="6393295#5" type="car" departLane="best" departPos="free" departSpeed="max"/>
    <trip id="all_0p6_s3_car_25" depart="15.00" from="6321550#3" to="6399832" type="car" departLane="best" departPos="free" departSpeed="max"/>
    <trip id="all_0p6_s3_car_26" depart="15.60" from="6376862#3" to="844708971#2" type="car" departLane="best" departPos="free" departSpeed="max"/>
    <trip id="all_0p6_s3_car_27" depart="16.20" from="518175685" to="-6332221#0" type="car" departLane="best" departPos="free" departSpeed="max"/>
    <trip id="all_0p6_s3_car_28" depart="16.80" from="6377773#1" to="725202075#2" type="car" departLane="best" departPos="free" departSpeed="max"/>
    <trip id="all_0p6_s3_car_29" depart="17.40" from="6391327" to="417095584#2" type="car" departLane="best" departPos="free" departSpeed="max"/>
    <trip id="all_0p6_s3_car_30" depart="18.00" from="6332812" to="-6341506#2" type="car" departLane="best" departPos="free" departSpeed="max"/>
    <trip id="all_0p6_s3_car_31" depart="18.60" from="6367505" to="417095586#5" type="car" departLane="best" departPos="free" departSpeed="max"/>
    <trip id="all_0p6_s3_car_32" depart="19.20" from="-6367573#0" to="-237427640#0" type="car" departLane="best" departPos="free" departSpeed="max"/>
    <trip id="all_0p6_s3_car_33" depart="19.80" from="6376677#4" to="839114764" type="car" departLane="best" departPos="free" departSpeed="max"/>
    <trip id="all_0p6_s3_car_34" depart="20.40" from="-356707830#4" to="6352738#4" type="car" departLane="best" departPos="free" departSpeed="max"/>
    <trip id="all_0p6_s3_car_35" depart="21.00" from="-725202070#1" to="-6330455" type="car" departLane="best" departPos="free" departSpeed="max"/>
    <trip id="all_0p6_s3_car_36" depart="21.60" from="-6371200" to="6344437#4" type="car" departLane="best" departPos="free" departSpeed="max"/>
    <trip id="all_0p6_s3_car_37" depart="22.20" from="6378652#1" to="-1417057947#1" type="car" departLane="best" departPos="free" departSpeed="max"/>
    <trip id="all_0p6_s3_car_38" depart="22.80" from="417104907#1" to="-1417272589#1" type="car" departLane="best" departPos="free" departSpeed="max"/>
    <trip id="all_0p6_s3_car_39" depart="23.40" from="6334288#1" to="-6385767#2" type="car" departLane="best" departPos="free" departSpeed="max"/>
    <trip id="all_0p6_s3_car_40" depart="24.00" from="6383121#1" to="743199099" type="car" departLane="best" departPos="free" departSpeed="max"/>
    <trip id="all_0p6_s3_car_41" depart="24.60" from="1417272589#2" to="984096239#1" type="car" departLane="best" departPos="free" departSpeed="max"/>
    <trip id="all_0p6_s3_car_42" depart="25.20" from="-6377054#1" to="-30915802#0" type="car" departLane="best" departPos="free" departSpeed="max"/>
    <trip id="all_0p6_s3_car_43" depart="25.80" from="417101776#1" to="-1385414077" type="car" departLane="best" departPos="free" departSpeed="max"/>
    <trip id="all_0p6_s3_car_44" depart="26.40" from="-6336411#2" to="-725202074#1" type="car" departLane="best" departPos="free" departSpeed="max"/>
    <trip id="all_0p6_s3_car_45" depart="27.00" from="417104854#0" to="-6330783#8" type="car" departLane="best" departPos="free" departSpeed="max"/>
    <trip id="all_0p6_s3_car_46" depart="27.60" from="-1417057946" to="6378652#0" type="car" departLane="best" departPos="free" departSpeed="max"/>
    <trip id="all_0p6_s3_car_47" depart="28.20" from="-6377773#11" to="725202070#2" type="car" departLane="best" departPos="free" departSpeed="max"/>
    <trip id="all_0p6_s3_car_48" depart="28.80" from="6388199#1" to="-6399698#0" type="car" departLane="best" departPos="free" departSpeed="max"/>
    <trip id="all_0p6_s3_car_49" depart="29.40" from="1125168400#0" to="224911193#0" type="car" departLane="best" departPos="free" departSpeed="max"/>
    <trip id="all_0p6_s3_car_50" depart="30.00" from="417110670#3" to="417101777" type="car" departLane="best" departPos="free" departSpeed="max"/>
    <trip id="all_0p6_s3_car_51" depart="30.60" from="356707830#2" to="417109152" type="car" departLane="best" departPos="free" departSpeed="max"/>
    <trip id="all_0p6_s3_car_52" depart="31.20" from="6402363#3" to="154200665" type="car" departLane="best" departPos="free" departSpeed="max"/>
    <trip id="all_0p6_s3_car_53" depart="31.80" from="-747497972#0" to="6335137#13" type="car" departLane="best" departPos="free" departSpeed="max"/>
    <trip id="all_0p6_s3_car_54" depart="32.40" from="-6346214#7" to="-6376677#0" type="car" departLane="best" departPos="free" departSpeed="max"/>
    <trip id="all_0p6_s3_car_55" depart="33.00" from="743199093#7" to="224911193#2" type="car" departLane="best" departPos="free" departSpeed="max"/>
    <trip id="all_0p6_s3_car_56" depart="33.60" from="30915802#0" to="-1125517937#1" type="car" departLane="best" departPos="free" departSpeed="max"/>
    <trip id="all_0p6_s3_car_57" depart="34.20" from="-725202074#4" to="417099715" type="car" departLane="best" departPos="free" departSpeed="max"/>
    <trip id="all_0p6_s3_car_58" depart="34.80" from="-119466342#0" to="417109111" type="car" departLane="best" departPos="free" departSpeed="max"/>
    <trip id="all_0p6_s3_car_59" depart="35.40" from="417109209#0" to="-221422255#4" type="car" departLane="best" departPos="free" departSpeed="max"/>
    <trip id="all_0p6_s3_car_60" depart="36.00" from="417109177#0" to="1125518059" type="car" departLane="best" departPos="free" departSpeed="max"/>
    <trip id="all_0p6_s3_car_61" depart="36.60" from="6321428#1" to="-6392511#2" type="car" departLane="best" departPos="free" departSpeed="max"/>
    <trip id="all_0p6_s3_car_62" depart="37.20" from="6331370#0" to="6336411#1" type="car" departLane="best" departPos="free" departSpeed="max"/>
    <trip id="all_0p6_s3_car_63" depart="37.80" from="-1231758410" to="-224911193#0" type="car" departLane="best" departPos="free" departSpeed="max"/>
    <trip id="all_0p6_s3_car_64" depart="38.40" from="58533716#1" to="725202074#4" type="car" departLane="best" departPos="free" departSpeed="max"/>
    <trip id="all_0p6_s3_car_65" depart="39.00" from="-6347924#5" to="1125517937#3" type="car" departLane="best" departPos="free" departSpeed="max"/>
    <trip id="all_0p6_s3_car_66" depart="39.60" from="417099885#0" to="-6377976#4" type="car" departLane="best" departPos="free" departSpeed="max"/>
    <trip id="all_0p6_s3_car_67" depart="40.20" from="-6394040#0" to="-6377773#3" type="car" departLane="best" departPos="free" departSpeed="max"/>
    <trip id="all_0p6_s3_car_68" depart="40.80" from="-6395098#1" to="417101776#1" type="car" departLane="best" departPos="free" departSpeed="max"/>
    <trip id="all_0p6_s3_car_69" depart="41.40" from="-6375779#2" to="-6398932#2" type="car" departLane="best" departPos="free" departSpeed="max"/>
    <trip id="all_0p6_s3_car_70" depart="42.00" from="6344437#5" to="-1341691756#1" type="car" departLane="best" departPos="free" departSpeed="max"/>
    <trip id="all_0p6_s3_car_71" depart="42.60" from="39158024#3" to="6336235#1" type="car" departLane="best" departPos="free" departSpeed="max"/>
    <trip id="all_0p6_s3_car_72" depart="43.20" from="-6377054#2" to="-6344437#4" type="car" departLane="best" departPos="free" departSpeed="max"/>
    <trip id="all_0p6_s3_car_73" depart="43.80" from="6352738#4" to="-6347072#1" type="car" departLane="best" departPos="free" departSpeed="max"/>
    <trip id="all_0p6_s3_car_74" depart="44.40" from="-6335775#1" to="-844708973#0" type="car" departLane="best" departPos="free" departSpeed="max"/>
    <trip id="all_0p6_s3_car_75" depart="45.00" from="6330053#7" to="-417099885#10" type="car" departLane="best" departPos="free" departSpeed="max"/>
    <trip id="all_0p6_s3_car_76" depart="45.60" from="-6377976#2" to="-6387370#0" type="car" departLane="best" departPos="free" departSpeed="max"/>
    <trip id="all_0p6_s3_car_77" depart="46.20" from="6368277" to="-984096239#2" type="car" departLane="best" departPos="free" departSpeed="max"/>
    <trip id="all_0p6_s3_car_78" depart="46.80" from="6376862#1" to="-6334288#0" type="car" departLane="best" departPos="free" departSpeed="max"/>
    <trip id="all_0p6_s3_car_79" depart="47.40" from="-6385767#3" to="417292858#0" type="car" departLane="best" departPos="free" departSpeed="max"/>
    <trip id="all_0p6_s3_car_80" depart="48.00" from="6386053#1" to="1125168400#2" type="car" departLane="best" departPos="free" departSpeed="max"/>
    <trip id="all_0p6_s3_car_81" depart="48.60" from="-6343008#0" to="-417110692#1" type="car" departLane="best" departPos="free" departSpeed="max"/>
    <trip id="all_0p6_s3_car_82" depart="49.20" from="237427640#1" to="-6336235#3" type="car" departLane="best" departPos="free" departSpeed="max"/>
    <trip id="all_0p6_s3_car_83" depart="49.80" from="6352824#2" to="6371203" type="car" departLane="best" departPos="free" departSpeed="max"/>
    <trip id="all_0p6_s3_car_84" depart="50.40" from="-6335430#3" to="-6366623#2" type="car" departLane="best" departPos="free" departSpeed="max"/>
    <trip id="all_0p6_s3_car_85" depart="51.00" from="6352824#3" to="417110670#4" type="car" departLane="best" departPos="free" departSpeed="max"/>
    <trip id="all_0p6_s3_car_86" depart="51.60" from="6352824#2" to="-6388594#2" type="car" departLane="best" departPos="free" departSpeed="max"/>
    <trip id="all_0p6_s3_car_87" depart="52.20" from="-500727805" to="-6373221#0" type="car" departLane="best" departPos="free" departSpeed="max"/>
    <trip id="all_0p6_s3_car_88" depart="52.80" from="6347924#5" to="-6362169#1" type="car" departLane="best" departPos="free" departSpeed="max"/>
    <trip id="all_0p6_s3_car_89" depart="53.40" from="-6388025#1" to="-743199093#2" type="car" departLane="best" departPos="free" departSpeed="max"/>
    <trip id="all_0p6_s3_car_90" depart="54.00" from="-725202076#2" to="-725202074#3" type="car" departLane="best" departPos="free" departSpeed="max"/>
    <trip id="all_0p6_s3_car_91" depart="54.60" from="6395744" to="-6330783#8" type="car" departLane="best" departPos="free" departSpeed="max"/>
    <trip id="all_0p6_s3_car_92" depart="55.20" from="-1107630019#4" to="6406203#4" type="car" departLane="best" departPos="free" departSpeed="max"/>
    <trip id="all_0p6_s3_car_93" depart="55.80" from="6383121#0" to="82362328#2" type="car" departLane="best" departPos="free" departSpeed="max"/>
    <trip id="all_0p6_s3_car_94" depart="56.40" from="-756882987" to="6407199#15" type="car" departLane="best" departPos="free" departSpeed="max"/>
    <trip id="all_0p6_s3_car_95" depart="57.00" from="6397701#2" to="-6344437#3" type="car" departLane="best" departPos="free" departSpeed="max"/>
    <trip id="all_0p6_s3_car_96" depart="57.60" from="6338197" to="6370622#1" type="car" departLane="best" departPos="free" departSpeed="max"/>
    <trip id="all_0p6_s3_car_97" depart="58.20" from="417954114#0" to="221422255#3" type="car" departLane="best" departPos="free" departSpeed="max"/>
    <trip id="all_0p6_s3_car_98" depart="58.80" from="-6369773" to="-6388025#1" type="car" departLane="best" departPos="free" departSpeed="max"/>
    <trip id="all_0p6_s3_car_99" depart="59.40" from="-6344437#3" to="-237427652" type="car" departLane="best" departPos="free" departSpeed="max"/>
    <trip id="all_0p6_s3_car_100" depart="60.00" from="417099825#0" to="-6369876#0" type="car" departLane="best" departPos="free" departSpeed="max"/>
    <trip id="all_0p6_s3_car_101" depart="60.60" from="6352824#8" to="-1417272589#1" type="car" departLane="best" departPos="free" departSpeed="max"/>
    <trip id="all_0p6_s3_car_102" depart="61.20" from="6390555" to="6330053#3" type="car" departLane="best" departPos="free" departSpeed="max"/>
    <trip id="all_0p6_s3_car_103" depart="61.80" from="6396921#0" to="6388199#4" type="car" departLane="best" departPos="free" departSpeed="max"/>
    <trip id="all_0p6_s3_car_104" depart="62.40" from="6388594#0" to="417099651" type="car" departLane="best" departPos="free" departSpeed="max"/>
    <trip id="all_0p6_s3_car_105" depart="63.00" from="-1125518021#0" to="6339844#0" type="car" departLane="best" departPos="free" departSpeed="max"/>
    <trip id="all_0p6_s3_car_106" depart="63.60" from="-6333535#1" to="-6376183" type="car" departLane="best" departPos="free" departSpeed="max"/>
    <trip id="all_0p6_s3_car_107" depart="64.20" from="417954114#0" to="237427641#0" type="car" departLane="best" departPos="free" departSpeed="max"/>
    <trip id="all_0p6_s3_car_108" depart="64.80" from="-725202074#1" to="6402754#1" type="car" departLane="best" departPos="free" departSpeed="max"/>
    <trip id="all_0p6_s3_car_109" depart="65.40" from="417104875#1" to="-6388199#0" type="car" departLane="best" departPos="free" departSpeed="max"/>
    <trip id="all_0p6_s3_car_110" depart="66.00" from="-6348077#3" to="6377973#0" type="car" departLane="best" departPos="free" departSpeed="max"/>
    <trip id="all_0p6_s3_car_111" depart="66.60" from="119466108" to="6346823#1" type="car" departLane="best" departPos="free" departSpeed="max"/>
    <trip id="all_0p6_s3_car_112" depart="67.20" from="-6390192#2" to="-6338197" type="car" departLane="best" departPos="free" departSpeed="max"/>
    <trip id="all_0p6_s3_car_113" depart="67.80" from="237427651" to="6361345#3" type="car" departLane="best" departPos="free" departSpeed="max"/>
    <trip id="all_0p6_s3_car_114" depart="68.40" from="-6333535#0" to="6347924#3" type="car" departLane="best" departPos="free" departSpeed="max"/>
    <trip id="all_0p6_s3_car_115" depart="69.00" from="6396673" to="6352824#8" type="car" departLane="best" departPos="free" departSpeed="max"/>
    <trip id="all_0p6_s3_car_116" depart="69.60" from="6362658#0" to="-1110911849" type="car" departLane="best" departPos="free" departSpeed="max"/>
    <trip id="all_0p6_s3_car_117" depart="70.20" from="417109193" to="6377973#1" type="car" departLane="best" departPos="free" departSpeed="max"/>
    <trip id="all_0p6_s3_car_118" depart="70.80" from="-1462135364#1" to="-6362169#1" type="car" departLane="best" departPos="free" departSpeed="max"/>
    <trip id="all_0p6_s3_car_119" depart="71.40" from="-6356404#1" to="237427645" type="car" departLane="best" departPos="free" departSpeed="max"/>
    <trip id="all_0p6_s3_car_120" depart="72.00" from="-743199093#5" to="122220077#3" type="car" departLane="best" departPos="free" departSpeed="max"/>
    <trip id="all_0p6_s3_car_121" depart="72.60" from="6345944" to="-1094996469#1" type="car" departLane="best" departPos="free" departSpeed="max"/>
    <trip id="all_0p6_s3_car_122" depart="73.20" from="-156504067#4" to="-518183326#1" type="car" departLane="best" departPos="free" departSpeed="max"/>
    <trip id="all_0p6_s3_car_123" depart="73.80" from="-417110675" to="-242562183" type="car" departLane="best" departPos="free" departSpeed="max"/>
    <trip id="all_0p6_s3_car_124" depart="74.40" from="732311662#2" to="6377773#0" type="car" departLane="best" departPos="free" departSpeed="max"/>
    <trip id="all_0p6_s3_car_125" depart="75.00" from="-319667116#9" to="1462135364#1" type="car" departLane="best" departPos="free" departSpeed="max"/>
    <trip id="all_0p6_s3_car_126" depart="75.60" from="-6377773#4" to="-6377773#6" type="car" departLane="best" departPos="free" departSpeed="max"/>
    <trip id="all_0p6_s3_car_127" depart="76.20" from="-6390192#1" to="417292839" type="car" departLane="best" departPos="free" departSpeed="max"/>
    <trip id="all_0p6_s3_car_128" depart="76.80" from="417099805#0" to="-6394156#1" type="car" departLane="best" departPos="free" departSpeed="max"/>
    <trip id="all_0p6_s3_car_129" depart="77.40" from="-6336233#0" to="-6383121#1" type="car" departLane="best" departPos="free" departSpeed="max"/>
    <trip id="all_0p6_s3_car_130" depart="78.00" from="-417110670#5" to="359194818#0" type="car" departLane="best" departPos="free" departSpeed="max"/>
    <trip id="all_0p6_s3_car_131" depart="78.60" from="6333535#1" to="-6400493#0" type="car" departLane="best" departPos="free" departSpeed="max"/>
    <trip id="all_0p6_s3_car_132" depart="79.20" from="-30915802#2" to="-6335137#9" type="car" departLane="best" departPos="free" departSpeed="max"/>
    <trip id="all_0p6_s3_car_133" depart="79.80" from="-6396921#0" to="417104823" type="car" departLane="best" departPos="free" departSpeed="max"/>
    <trip id="all_0p6_s3_car_134" depart="80.40" from="6346603#0" to="-6400493#1" type="car" departLane="best" departPos="free" departSpeed="max"/>
    <trip id="all_0p6_s3_car_135" depart="81.00" from="6352239#1" to="417109170" type="car" departLane="best" departPos="free" departSpeed="max"/>
    <trip id="all_0p6_s3_car_136" depart="81.60" from="-747497972#1" to="-6397701#0" type="car" departLane="best" departPos="free" departSpeed="max"/>
    <trip id="all_0p6_s3_car_137" depart="82.20" from="1385457144#1" to="6330783#9" type="car" departLane="best" departPos="free" departSpeed="max"/>
    <trip id="all_0p6_s3_car_138" depart="82.80" from="-725202076#4" to="6330053#4" type="car" departLane="best" departPos="free" departSpeed="max"/>
    <trip id="all_0p6_s3_car_139" depart="83.40" from="1125168400#1" to="-6348077#0" type="car" departLane="best" departPos="free" departSpeed="max"/>
    <trip id="all_0p6_s3_car_140" depart="84.00" from="242562187#0" to="6330053#6" type="car" departLane="best" departPos="free" departSpeed="max"/>
    <trip id="all_0p6_s3_car_141" depart="84.60" from="-242565997#3" to="-747497972#1" type="car" departLane="best" departPos="free" departSpeed="max"/>
    <trip id="all_0p6_s3_car_142" depart="85.20" from="-743199094#2" to="6385767#2" type="car" departLane="best" departPos="free" departSpeed="max"/>
    <trip id="all_0p6_s3_car_143" depart="85.80" from="6402225#0" to="-6397860" type="car" departLane="best" departPos="free" departSpeed="max"/>
    <trip id="all_0p6_s3_car_144" depart="86.40" from="6388199#3" to="6347924#1" type="car" departLane="best" departPos="free" departSpeed="max"/>
    <trip id="all_0p6_s3_car_145" depart="87.00" from="-6352824#4" to="1125518056" type="car" departLane="best" departPos="free" departSpeed="max"/>
    <trip id="all_0p6_s3_car_146" depart="87.60" from="-417110670#4" to="6360051" type="car" departLane="best" departPos="free" departSpeed="max"/>
    <trip id="all_0p6_s3_car_147" depart="88.20" from="417712050" to="6387866" type="car" departLane="best" departPos="free" departSpeed="max"/>
    <trip id="all_0p6_s3_car_148" depart="88.80" from="6347924#3" to="500727805" type="car" departLane="best" departPos="free" departSpeed="max"/>
    <trip id="all_0p6_s3_car_149" depart="89.40" from="6335775#3" to="39158024#3" type="car" departLane="best" departPos="free" departSpeed="max"/>
    <trip id="all_0p6_s3_car_150" depart="90.00" from="-417099863" to="417099875" type="car" departLane="best" departPos="free" departSpeed="max"/>
    <trip id="all_0p6_s3_car_151" depart="90.60" from="-1107630019#4" to="-6329264" type="car" departLane="best" departPos="free" departSpeed="max"/>
    <trip id="all_0p6_s3_car_152" depart="91.20" from="6344516#0" to="-1417272589#0" type="car" departLane="best" departPos="free" departSpeed="max"/>
    <trip id="all_0p6_s3_car_153" depart="91.80" from="-359194828#1" to="-417095586#9" type="car" departLane="best" departPos="free" departSpeed="max"/>
    <trip id="all_0p6_s3_car_154" depart="92.40" from="6383121#1" to="-6335430#0" type="car" departLane="best" departPos="free" departSpeed="max"/>
    <trip id="all_0p6_s3_car_155" depart="93.00" from="-1231758412#0" to="6375774#2" type="car" departLane="best" departPos="free" departSpeed="max"/>
    <trip id="all_0p6_s3_car_156" depart="93.60" from="-417109221#7" to="6375779#3" type="car" departLane="best" departPos="free" departSpeed="max"/>
    <trip id="all_0p6_s3_car_157" depart="94.20" from="521790711" to="6370048" type="car" departLane="best" departPos="free" departSpeed="max"/>
    <trip id="all_0p6_s3_car_158" depart="94.80" from="6407199#4" to="417099705" type="car" departLane="best" departPos="free" departSpeed="max"/>
    <trip id="all_0p6_s3_car_159" depart="95.40" from="6348792#0" to="-1389397840" type="car" departLane="best" departPos="free" departSpeed="max"/>
    <trip id="all_0p6_s3_car_160" depart="96.00" from="6343008#1" to="156504067#3" type="car" departLane="best" departPos="free" departSpeed="max"/>
    <trip id="all_0p6_s3_car_161" depart="96.60" from="6333423" to="-417099885#9" type="car" departLane="best" departPos="free" departSpeed="max"/>
    <trip id="all_0p6_s3_car_162" depart="97.20" from="6339844#0" to="6402235#1" type="car" departLane="best" departPos="free" departSpeed="max"/>
    <trip id="all_0p6_s3_car_163" depart="97.80" from="-221422255#4" to="-6380579#2" type="car" departLane="best" departPos="free" departSpeed="max"/>
    <trip id="all_0p6_s3_car_164" depart="98.40" from="359618898#0" to="6368422" type="car" departLane="best" departPos="free" departSpeed="max"/>
    <trip id="all_0p6_s3_car_165" depart="99.00" from="-6346825" to="-6335430#1" type="car" departLane="best" departPos="free" departSpeed="max"/>
    <trip id="all_0p6_s3_car_166" depart="99.60" from="-6347924#3" to="417109111" type="car" departLane="best" departPos="free" departSpeed="max"/>
    <trip id="all_0p6_s3_car_167" depart="100.20" from="6340539#6" to="-6407199#0" type="car" departLane="best" departPos="free" departSpeed="max"/>
    <trip id="all_0p6_s3_car_168" depart="100.80" from="-6394156#6" to="-6407199#13" type="car" departLane="best" departPos="free" departSpeed="max"/>
    <trip id="all_0p6_s3_car_169" depart="101.40" from="-6390192#0" to="-743199093#7" type="car" departLane="best" departPos="free" departSpeed="max"/>
    <trip id="all_0p6_s3_car_170" depart="102.00" from="-319667116#2" to="1418368559#0" type="car" departLane="best" departPos="free" departSpeed="max"/>
    <trip id="all_0p6_s3_car_171" depart="102.60" from="732311661#2" to="-725202076#0" type="car" departLane="best" departPos="free" departSpeed="max"/>
    <trip id="all_0p6_s3_car_172" depart="103.20" from="6339261#1" to="-6331370#5" type="car" departLane="best" departPos="free" departSpeed="max"/>
    <trip id="all_0p6_s3_car_173" depart="103.80" from="6327902#9" to="6341284#0" type="car" departLane="best" departPos="free" departSpeed="max"/>
    <trip id="all_0p6_s3_car_174" depart="104.40" from="521790711" to="216938526#2" type="car" departLane="best" departPos="free" departSpeed="max"/>
    <trip id="all_0p6_s3_car_175" depart="105.00" from="1231758412#1" to="417110675" type="car" departLane="best" departPos="free" departSpeed="max"/>
    <trip id="all_0p6_s3_car_176" depart="105.60" from="6388199#2" to="-6330053#7" type="car" departLane="best" departPos="free" departSpeed="max"/>
    <trip id="all_0p6_s3_car_177" depart="106.20" from="-37436237#2" to="6340539#1" type="car" departLane="best" departPos="free" departSpeed="max"/>
    <trip id="all_0p6_s3_car_178" depart="106.80" from="6394156#4" to="216938526#2" type="car" departLane="best" departPos="free" departSpeed="max"/>
    <trip id="all_0p6_s3_car_179" depart="107.40" from="-844708974#0" to="6335137#10" type="car" departLane="best" departPos="free" departSpeed="max"/>
    <trip id="all_0p6_s3_car_180" depart="108.00" from="-6335446" to="-6360575#0" type="car" departLane="best" departPos="free" departSpeed="max"/>
    <trip id="all_0p6_s3_car_181" depart="108.60" from="-6337807#0" to="417099854" type="car" departLane="best" departPos="free" departSpeed="max"/>
    <trip id="all_0p6_s3_car_182" depart="109.20" from="-6377773#13" to="-6346214#9" type="car" departLane="best" departPos="free" departSpeed="max"/>
    <trip id="all_0p6_s3_car_183" depart="109.80" from="6327902#9" to="6407199#6" type="car" departLane="best" departPos="free" departSpeed="max"/>
    <trip id="all_0p6_s3_car_184" depart="110.40" from="-6373565" to="6331370#4" type="car" departLane="best" departPos="free" departSpeed="max"/>
    <trip id="all_0p6_s3_car_185" depart="111.00" from="-725202073#3" to="6377581#1" type="car" departLane="best" departPos="free" departSpeed="max"/>
    <trip id="all_0p6_s3_car_186" depart="111.60" from="417099721" to="-6360575#0" type="car" departLane="best" departPos="free" departSpeed="max"/>
    <trip id="all_0p6_s3_car_187" depart="112.20" from="-6341506#3" to="-119466342#3" type="car" departLane="best" departPos="free" departSpeed="max"/>
    <trip id="all_0p6_s3_car_188" depart="112.80" from="119466342#2" to="-6402225#0" type="car" departLane="best" departPos="free" departSpeed="max"/>
    <trip id="all_0p6_s3_car_189" depart="113.40" from="-6333535#2" to="-6394040#0" type="car" departLane="best" departPos="free" departSpeed="max"/>
    <trip id="all_0p6_s3_car_190" depart="114.00" from="-6377976#3" to="6345286#1" type="car" departLane="best" departPos="free" departSpeed="max"/>
    <trip id="all_0p6_s3_car_191" depart="114.60" from="-6327105#4" to="844708971#2" type="car" departLane="best" departPos="free" departSpeed="max"/>
    <trip id="all_0p6_s3_car_192" depart="115.20" from="119466342#3" to="417101870#0" type="car" departLane="best" departPos="free" departSpeed="max"/>
    <trip id="all_0p6_s3_car_193" depart="115.80" from="1125517937#5" to="6369876#5" type="car" departLane="best" departPos="free" departSpeed="max"/>
    <trip id="all_0p6_s3_car_194" depart="116.40" from="6361350" to="359194828#1" type="car" departLane="best" departPos="free" departSpeed="max"/>
    <trip id="all_0p6_s3_car_195" depart="117.00" from="122220077#1" to="6335137#13" type="car" departLane="best" departPos="free" departSpeed="max"/>